     193
 i =       20, E =     -1140.5779691501
  C        18.5407062477        2.1461849173       -0.8315395304
  C         6.3146657853       12.8965739702        3.5929098750
  C         7.5212753122       13.6100700289        3.8374497679
  C         8.7499729917       12.8966093620        3.9171449926
  C         9.9786455667       13.6098297497        3.8266313694
  C        11.1851874854       12.8970177568        3.5750081307
  C        12.3551397354       13.6092161682        3.1849530862
  C        13.4784317467       12.8974016795        2.6750911748
  C        14.5536675204       13.6091193533        2.0696146386
  C        15.5846172849       12.8976246314        1.3917238908
  C        16.5812418490       13.6091833122        0.6645995247
  C        17.5598872833       12.8976934816       -0.0853825386
  C        18.5405321728       13.6099069397       -0.8311973327
  C        19.5421453996       12.8973264341       -1.5482950915
  C        20.5790431965       13.6102660177       -2.2131014385
  C        21.6610994184       12.8972601421       -2.8019035483
  C        22.7895366745       13.6107502834       -3.2945922625
  C        21.6614534400       11.4607223741       -2.8017075550
  C        19.5419469085       11.4607813003       -1.5493243900
  C        17.5583525945       11.4614709757       -0.0889028084
  C        15.5815718033       11.4614174637        1.3862570443
  C        13.4755240117       11.4611355265        2.6712625502
  C        12.3512984418       10.7483345004        3.1790349733
  C        11.1838409706       11.4609148191        3.5736772145
  C         9.9772817029       10.7471391686        3.8257079413
  C         8.7493085287       11.4605899940        3.9178551899
  C         7.5204426148       10.7465155889        3.8381209453
  C         6.3141024615       11.4604742258        3.5938274929
  C         5.1470126084       10.7466560218        3.2043297786
  C        20.5794866645       10.7472707826       -2.2132161760
  C        18.5390135086       10.7480583558       -0.8344529077
  C        16.5760423130       10.7496858271        0.6555180250
  C        14.5479360602       10.7502063920        2.0604208660
  C        20.5801295205        9.3105493405       -2.2136951397
  C        19.5422446199        8.5972871300       -1.5513221185
  C        18.5386860563        9.3112969177       -0.8377507285
  C        17.5523761994        8.5980437782       -0.1013890907
  C        16.5715834978        9.3132600665        0.6429501399
  C        15.5628906606        8.6009243121        1.3530541353
  C        14.5372104222        9.3131341206        2.0444324013
  C        13.4589049101        8.5988394845        2.6462746715
  C        12.3455074041        9.3120091200        3.1734358596
  C        11.1790446726        8.5970841266        3.5680764105
  C         9.9753573475        9.3107707070        3.8260618731
  C         8.7474263932        8.5965720275        3.9193874986
  C         7.5193046428        9.3104255736        3.8398218804
  C         6.3126397690        8.5966603439        3.5960823939
  C         5.1462433960        9.3105178476        3.2054698075
  C         4.0275295319        8.5969652149        2.6930310184
  C         4.0273056217        7.1606493911        2.6933386618
  C         5.1458622598        6.4466031994        3.2058784488
  C         6.3122675733        7.1605343653        3.5966490332
  C         7.5185665685        6.4461889785        3.8406671302
  C         8.7466964498        7.1604769077        3.9197510897
  C         9.9740231872        6.4459023119        3.8259024206
  C        11.1775476991        7.1604013610        3.5678906297
  C        12.3402779178        6.4443008291        3.1667682836
  C        13.4522626880        7.1599461911        2.6389082462
  C        14.5206223722        6.4424108641        2.0192506360
  C        15.5523968399        7.1590479381        1.3331263498
  C        16.5634708952        6.4432964933        0.6271975223
  C        17.5517773509        7.1603693771       -0.1050196971
  C        18.5386403142        6.4462045701       -0.8398652834
  C        19.5428740893        7.1605564802       -1.5516692382
  C        18.5385409623        5.0092263235       -0.8371301709
  C        17.5564375622        4.2946944647       -0.0943180911
  C        16.5678227521        5.0058146328        0.6410997108
  C        15.5731522693        4.2929665281        1.3710631953
  C        14.5347713912        5.0031770522        2.0394604282
  C        13.4666586002        4.2933070597        2.6580696939
  C        12.3450458050        5.0077118693        3.1691490983
  C        11.1807975202        4.2951308123        3.5702606725
  C         9.9754544692        5.0095288042        3.8249607640
  C         8.7480381664        4.2959980125        3.9185642169
  C         7.5194006230        5.0100598229        3.8393805225
  C         6.3131445287        4.2964183843        3.5949902034
  C         5.1462005740        5.0104091864        3.2056009158
  C         4.0277619391        4.2969238755        2.6926806164
  C         2.9606117278        5.0105496533        2.0791937394
  C         2.9604380234        6.4470877441        2.0793564511
  C         1.9388229939        4.2973060946        1.3933387857
  C         1.9390260736        2.8607183957        1.3932816816
  C         2.9610097266        2.1470549935        2.0788688797
  C         4.0282538445        2.8605961834        2.6922518660
  C         5.1474129331        2.1465514524        3.2037639974
  C         6.3141265171        2.8602854546        3.5938453692
  C         7.5209286481        2.1461618406        3.8376789007
  C         8.7493691899        2.8598695855        3.9171443571
  C         9.9780790862        2.1459376302        3.8263305559
  C        11.1837172410        2.8588331284        3.5723626655
  C        12.3535223002        2.1453540224        3.1828300089
  C        13.4741200256        2.8572250870        2.6681314805
  C        14.5515718548        2.1454157402        2.0662111802
  C        15.5810712142        2.8568613737        1.3853995848
  C        16.5804581624        2.1454703997        0.6624424407
  C        17.5587834381        2.8582239445       -0.0877110804
  C        20.5793025263        2.1469847032       -2.2129427574
  C        21.6615523125        2.8606528351       -2.8015214515
  C        25.1671802435        2.1474637284       -3.9225537625
  C        26.3949177286        2.8613511979       -4.0193731664
  C        28.8371892016        2.8613834256       -3.7370043511
  C        27.6248348210        2.1476077273       -3.9552310411
  C        33.2413116676        2.8611956804       -1.5900328756
  C        30.0132780810        2.1477388461       -3.3697871217
  C        31.1406336246        2.8612527081       -2.8732275519
  C        32.2144133020        2.1477459853       -2.2697696467
  C        34.2309280966        2.1477054328       -0.8573314700
  C        19.5425017572        4.2965219404       -1.5498263863
  C        22.7897104521        2.1472559077       -3.2946613341
  C        19.5421722779        2.8597768536       -1.5486939131
  C        35.2019304248        2.8609685656       -0.1000450619
  C         0.9509835642        2.1473471391        0.6586200135
  C        23.9607727640        2.8610823316       -3.6744134253
  C        23.9605663685       12.8974823198       -3.6744496287
  C        25.1670427765       13.6110828627       -3.9225796006
  C        26.3948127559       12.8976408873       -4.0191537240
  C        27.6247886991       13.6112261605       -3.9551953985
  C        28.8371507057       12.8978004510       -3.7369627663
  C        30.0132621109       13.6112150276       -3.3698024764
  C        31.1405551071       12.8978082237       -2.8731881652
  C        32.2143953214       13.6110677046       -2.2697607593
  C        33.2413105806       12.8978685427       -1.5900049182
  C        34.2309959081       13.6109674884       -0.8573500693
  C        35.2019381328       12.8976536666       -0.1000907486
  C        36.1710085951       13.6106691213        0.6586661804
  C        37.1591328813       12.8972830200        1.3931583281
  C        38.1812032989       13.6105115755        2.0786773343
  C        39.2485293259       12.8969166635        2.6918642378
  C        40.3677679313       13.6103496604        3.2033591106
  C        39.2483523610       11.4606086577        2.6919346462
  C        37.1590690089       11.4607213909        1.3931676089
  C        35.2019616684       11.4609985280       -0.1001094593
  C        33.2412821172       11.4612294367       -1.5899669449
  C        31.1405816007       11.4612751469       -2.8731335939
  C        30.0132924140       10.7477818223       -3.3698277598
  C        28.8371905392       11.4614094946       -3.7369756512
  C        27.6248945478       10.7476862152       -3.9555463608
  C        26.3949288933       11.4613793826       -4.0194570506
  C        25.1672344201       10.7475083512       -3.9230451731
  C        23.9607397708       11.4610952771       -3.6747088648
  C        22.7899980137       10.7472784689       -3.2946635784
  C        38.1808944206       10.7470568245        2.0789225013
  C        36.1710461194       10.7473892986        0.6584869976
  C        34.2309200489       10.7477456010       -0.8573272213
  C        32.2144011634       10.7478123344       -2.2697336999
  C        38.1807217775        9.3105528758        2.0790470447
  C        37.1589035039        8.5973439658        1.3931995944
  C        36.1709873594        9.3107243276        0.6585031059
  C        35.2019115418        8.5976884602       -0.1001764039
  C        34.2309131259        9.3110102648       -0.8573166465
  C        33.2412691750        8.5979195953       -1.5900011176
  C        32.2143823819        9.3111388905       -2.2697474685
  C        31.1406169616        8.5978634266       -2.8732568455
  C        30.0133394882        9.3112592849       -3.3698787478
  C        28.8373167723        8.5978579653       -3.7372623626
  C        27.6250416752        9.3113086362       -3.9557958570
  C        26.3951627484        8.5977051994       -4.0201097554
  C        25.1674425155        9.3111775537       -3.9235307647
  C        23.9611912765        8.5974946495       -3.6752335602
  C        22.7905198089        9.3108977226       -3.2947194058
  C        21.6626608847        8.5972622508       -2.8014043429
  C        21.6628972304        7.1608565410       -2.8015621223
  C        22.7908636784        6.4472579422       -3.2946879352
  C        23.9613846005        7.1611653072       -3.6751797250
  C        25.1676062080        6.4474600089       -3.9236899587
  C        26.3952257903        7.1614236650       -4.0202395185
  C        27.6250996905        6.4476783071       -3.9558677719
  C        28.8373487594        7.1614404790       -3.7372302602
  C        30.0133903515        6.4477825281       -3.3699503929
  C        31.1406422439        7.1613046514       -2.8732347626
  C        32.2144244306        6.4478235503       -2.2697924351
  C        33.2412665344        7.1612550942       -1.5899941879
  C        34.2308779515        6.4477483352       -0.8573513134
  C        35.2018539258        7.1610151911       -0.1000814126
  C        36.1709423905        6.4474247584        0.6585083451
  C        37.1589045066        7.1607806870        1.3932193585
  C        36.1709300192        5.0107338201        0.6586113510
  C        35.2018884254        4.2976541975       -0.1001007021
  C        34.2309283708        5.0109846268       -0.8573126856
  C        33.2412868128        4.2978659028       -1.5900031334
  C        32.2144490909        5.0111184371       -2.2698282576
  C        31.1406340925        4.2978190440       -2.8732493907
  C        30.0133735853        5.0112313766       -3.3699374559
  C        28.8372876981        4.2978082292       -3.7371444059
  C        27.6250369047        5.0112694326       -3.9557575759
  C        26.3950997628        4.2976322528       -4.0197090641
  C        25.1674213035        5.0110990738       -3.9233369177
  C        23.9610477521        4.2974462015       -3.6748309101
  C        22.7905151630        5.0108754602       -3.2943710467
  C        21.6622431319        4.2971909273       -2.8013479971
  C        20.5801892669        5.0102608467       -2.2131859824
  C        20.5810132554        6.4469560604       -2.2133256741
 Na        16.2951375207        7.2145436337        3.7969966007
