106
i =        1, E =      -573.5750146126
C     -0.1018554664    0.0421282390    0.0200561661
C      4.1674189991   -7.3775345271    0.0039913804
C      7.0222292560   -7.3765868220    0.0205546989
C     -0.0964364768   -9.8489615197   -0.0035837475
C      4.9267357650    1.2387037683   -0.1667175620
C      6.2901090014    1.2484624409    0.0108161134
C      7.0285917809    0.0498026862    0.2688446519
C      2.7449767112   -4.9024767917    0.0071812539
C      2.0067975852  -11.0637239633   -0.0000674532
C      6.2781775482  -11.0631885051   -0.0068915480
C      2.7511714161   -7.3777920647   -0.0020721176
C      6.3097653739   -8.6152061904    0.0036268276
C      4.1733361510   -4.9024651519    0.0278588512
C      2.0336160325   -3.6695905450    0.0041837435
C      6.3055113198   -6.1356422237    0.0396622685
C      0.6127599897   -3.6694469977    0.0111546397
C      4.9126562285  -11.0638469511   -0.0070323981
C      2.0341703254   -6.1373532902   -0.0014124456
C      4.8836558362   -6.1362073089    0.0223806826
C      4.8802548792   -8.6154348212    0.0005934522
C      6.3106092574   -1.1850577968    0.1696066883
C      4.8831279043   -1.1916118267    0.0531485519
C      4.1760936434    0.0344058796   -0.0637677013
C      2.7475056661    0.0379278177   -0.1012534581
C      2.0034955175    1.2493994343   -0.1645618448
C      0.6366113742    1.2532390562   -0.0949986700
C      0.6411881906  -11.0643355250   -0.0007184488
C     -0.0980433953   -4.9029346962    0.0115792377
C      7.0152497394   -9.8476189014   -0.0019500144
C      0.6122315933   -6.1371243577   -0.0013044159
C     -0.1041470697   -7.3781221185   -0.0026899781
C      7.0195288455   -2.4260233190    0.1867140900
C      0.6087953635   -8.6160284822   -0.0048011897
C      2.0384866983   -8.6160545610   -0.0044209426
C      2.7441504488   -9.8482506489   -0.0029044786
C      4.1751914831   -9.8484803351   -0.0033776967
C     -0.1042374169   -2.4302327353    0.0352389346
C      7.0155771221   -4.9004555536    0.0858011070
C      6.3036133878   -3.6667519585    0.1108463589
C      4.8844215874   -3.6689350077    0.0641938469
C      4.1689715663   -2.4301205171    0.0397660135
C      2.7513031871   -2.4300670578   -0.0004855442
C      2.0383788357   -1.1928509044   -0.0359481598
C      0.6068560163   -1.1909259314    0.0024542782
C      8.4419563915    0.0278142725    0.5174610859
C     12.7099683059   -7.3779647472    0.0193549524
C     15.5653777358   -7.3782841632    0.0029914534
C      8.4463061404   -9.8482119923   -0.0014266705
C     13.4572197019    1.2389855287    0.4561283622
C     14.8169200626    1.2476895019    0.2951363625
C     15.5571984929    0.0405741900    0.1596191844
C     11.2875807366   -4.9043306447    0.1087939853
C     10.5492805001  -11.0635781467   -0.0106177345
C     14.8209038961  -11.0637518933   -0.0056787381
C     11.2932097141   -7.3776540473    0.0260243765
C     14.8526863101   -8.6162355270   -0.0005316721
C     12.7159860529   -4.9046412370    0.0934120467
C     10.5761143826   -3.6728294024    0.1812308636
C     14.8485528838   -6.1377181061    0.0237424770
C      9.1545233762   -3.6700359216    0.1714959800
C     13.4551333248  -11.0642894223   -0.0056564020
C     10.5763091453   -6.1377107147    0.0629076268
C     13.4263751202   -6.1378398494    0.0408943742
C     13.4229948605   -8.6160514724    0.0023807467
C     14.8534942604   -1.1949382423    0.1802500405
C     13.4266195910   -1.2010708361    0.2957472961
C     12.7229012235    0.0217575308    0.4630905517
C     11.2964066144    0.0066657265    0.5976293311
C     10.5604398129    1.1694168760    0.9481010418
C      9.1880912888    1.1777726319    0.9250687302
C      9.1836730478  -11.0637484879   -0.0101702028
C      8.4435691222   -4.9025950368    0.1026932533
C     15.5583788805   -9.8486338360   -0.0038874623
C      9.1537322805   -6.1362270304    0.0627105844
C      8.4381611637   -7.3771514683    0.0271437102
C     15.5649583367   -2.4310785163    0.0932768209
C      9.1511718783   -8.6152892565    0.0094302278
C     10.5806898263   -8.6159410618    0.0087276726
C     11.2863689654   -9.8481429692   -0.0022621320
C     12.7177545401   -9.8487522071   -0.0025929738
C      8.4381172840   -2.4323629196    0.2374310926
C     15.5595021046   -4.9030970241    0.0351666075
C     14.8484629820   -3.6706904945    0.0876125318
C     13.4275777207   -3.6724939840    0.1355310179
C     12.7122521621   -2.4377680389    0.2424766226
C     11.2940376814   -2.4394131116    0.2769839817
C     10.5818340138   -1.2098754579    0.4246151614
C      9.1505876337   -1.2027515246    0.3893138591
H      0.1134527352    2.2034214700   -0.1418648003
H      2.5189763846    2.1999852058   -0.2682339651
H      4.4567772541    2.1507347257   -0.5286048017
O      6.8971789831    2.4970572233   -0.1378303899
H      8.6738245565    2.0552256630    1.3070144391
H     11.0861314609    2.0613664206    1.2781220296
H     12.9347212717    2.1868020470    0.5477500356
H     15.3309228369    2.2039378485    0.2845868504
H      0.1239713870  -12.0179902806    0.0019523821
H      2.5244868696  -12.0171978957    0.0039634465
H      4.3953086246  -12.0173808673   -0.0120780035
H      6.7960758938  -12.0164965000   -0.0110188880
H      8.6662617041  -12.0172423639   -0.0185985550
H     11.0669109809  -12.0170328829   -0.0199686629
H     12.9380150510  -12.0179980404   -0.0072912183
H     15.3384908719  -12.0173226869   -0.0085010622
Na     5.1733709013    3.9839265821    1.7127717175
H      7.8492010567    2.3632811494   -0.3202395476
