     193
 i =       77, E =     -1140.4785183377
  C        -0.0017070566        0.0000933754       -0.0959830555
  C        16.1141915446        2.8636473817       -2.1790740117
  C        15.4394246739        2.1502254497       -1.1498141853
  C        16.8678476586        2.1499699676       -3.1528721729
  C        17.7287774090        2.8637230077       -4.0334592986
  C        18.7061034919        2.1496265783       -4.7822147390
  C        19.7968017717        2.8638284764       -5.3547010814
  C        20.9747846077        2.1495078063       -5.7159115592
  C        23.4258325844        2.1494730601       -5.7155505726
  C        22.2003253102        2.8639120942       -5.8384557862
  C        26.6713916648        2.8636455349       -4.0319236301
  C        24.6036339114        2.8637844033       -5.3537414220
  C        25.6940560284        2.1495845374       -4.7808318684
  C        28.9621557757        2.1500796280       -1.1493761520
  C        27.5325850029        2.1498709290       -3.1516031652
  C        28.2867531242        2.8635364706       -2.1781325714
  C        28.9624068950        0.7134942876       -1.1494293157
  C        17.7287143090       11.4637200056       -4.0333635179
  C        16.1140856818       11.4636361749       -2.1788992075
  C        14.8033288668       11.4639240762       -0.0962988634
  C        13.4955001266       11.4644956439        1.9877466377
  C        11.8826307902       11.4655356647        3.8444405011
  C        10.9016398865       10.7532055696        4.5905045041
  C         9.8061615898       11.4654376978        5.1599779720
  C         8.6240710193       10.7525390743        5.5162971036
  C         7.3965069308       11.4654831158        5.6391084936
  C         6.1685664010       10.7525789019        5.5184472759
  C         4.9889579005       11.4654288997        5.1612550371
  C         3.8954256789       10.7512931791        4.5924614757
  C        16.8677460397       10.7499889728       -3.1528689007
  C        15.4394363663       10.7502670281       -1.1497608772
  C        14.1686935858       10.7507048903        0.9576113360
  C        12.7443084959       10.7519678477        2.9636490523
  C        16.8676813320        9.3136704402       -3.1533249661
  C        16.1140395068        8.6001765778       -2.1795435913
  C        15.4392460332        9.3137129845       -1.1504476713
  C        14.8041540917        8.6003235325       -0.0967788401
  C        14.1698907052        9.3142082405        0.9573979583
  C        13.4994328413        8.6010689939        1.9886508707
  C        12.7477215325        9.3158812874        2.9638508358
  C        11.8857462260        8.6027018165        3.8421746089
  C        10.9035459948        9.3180035618        4.5861549902
  C         9.8022930685        8.6059582935        5.1410744560
  C         8.6209089981        9.3172302246        5.5053659504
  C         7.3916067924        8.6040328055        5.6218082816
  C         6.1648346422        9.3174105973        5.5163309352
  C         4.9844259179        8.6018177008        5.1618104212
  C         3.8919420255        9.3153940603        4.5941606260
  C         2.9115388370        8.6006243897        3.8484024534
  C         2.9087094976        7.1644266625        3.8494990277
  C         3.8867496779        6.4498920520        4.5966154085
  C         4.9797759742        7.1656687000        5.1623112372
  C         6.1595520598        6.4494492763        5.5061010070
  C         7.3839256668        7.1684812524        5.6046180343
  C         8.6049376984        6.4515086955        5.4468437804
  C         9.7980257835        7.1687115022        5.1158655755
  C        10.9016986240        6.4494598038        4.5688853932
  C        11.8904041128        7.1661796462        3.8401406885
  C        12.7535724738        6.4500418880        2.9645623399
  C        13.5022833990        7.1645094679        1.9886960026
  C        14.1721791023        6.4502875231        0.9574878359
  C        14.8045365975        7.1640169293       -0.0973042135
  C        15.4392566408        6.4502024264       -1.1510972985
  C        16.1139849044        7.1637348302       -2.1799758379
  C        15.4393075917        5.0136708972       -1.1507912761
  C        14.8041231848        4.3001627615       -0.0969999413
  C        14.1714713946        5.0138403161        0.9576699786
  C        13.5001552077        4.2997826390        1.9885165727
  C        12.7511360083        5.0135408136        2.9646001621
  C        11.8886082388        4.2980735220        3.8428695764
  C        10.9011418631        5.0126007782        4.5759409117
  C         9.8049347251        4.2973137284        5.1433238549
  C         8.6141550638        5.0103322123        5.4783916345
  C         7.3893060371        4.2970289163        5.6242285689
  C         6.1633191383        5.0133543227        5.5084332870
  C         4.9833354341        4.2984565257        5.1615760083
  C         3.8892693842        5.0137570713        4.5954171821
  C         2.9113752816        4.2996156388        3.8479475864
  C         2.0517106564        5.0137834240        2.9665956701
  C         2.0507130766        6.4500734388        2.9669531459
  C         1.3030475997        4.3001213251        1.9893162927
  C         1.3043308425        2.8637079586        1.9889240424
  C         2.0554591683        2.1499286494        2.9646628101
  C         2.9147036182        2.8635257218        3.8464720385
  C         3.8949360414        2.1493294544        4.5926209871
  C         4.9876100479        2.8627742414        5.1614995361
  C         6.1679268371        2.1488125622        5.5188555249
  C         7.3950234268        2.8622364038        5.6352987676
  C         8.6241244977        2.1496230800        5.5162213188
  C         9.8065040334        2.8615480833        5.1576931331
  C        10.9028106586        2.1489017600        4.5915477229
  C        11.8844896762        2.8621010453        3.8449298046
  C        12.7450927964        2.1492950144        2.9639492151
  C        13.4970813818        2.8632977566        1.9883889576
  C        14.1687016695        2.1501538600        0.9575619209
  C        14.8036114651        2.8638233021       -0.0965003185
  C        14.1681689102        0.7137145837        0.9575769978
  C        13.4948276655        0.0005825020        1.9876400899
  C        12.7431280809        0.7135184553        2.9633472203
  C        11.8815948158        0.0008833211        3.8443837076
  C        10.9009658706        0.7134067158        4.5915671882
  C         9.8061500502        0.0008075599        5.1609597000
  C         8.6248975519        0.7141725228        5.5187994859
  C         7.3971954774        0.0007911058        5.6396374689
  C         6.1696994232        0.7136083239        5.5190349408
  C         4.9899017238        0.0005215578        5.1607915591
  C         2.9170749198        0.0002491559        3.8450741074
  C         3.8966254079        0.7137757053        4.5916898405
  C         2.0565034302        0.7137178503        2.9641841138
  C         1.3053544419        0.0002422681        1.9885498877
  C         0.6328715158        0.7136035875        0.9580567327
  C         0.6325667348        2.1501436560        0.9580813761
  C        27.5326160571        0.7134713240       -3.1515790068
  C        29.5977317853        2.8636920549       -0.0958036399
  C        26.6713843853       -0.0002544108       -4.0318769129
  C        16.1140689530        4.3001012882       -2.1796348510
  C        28.2869060147        0.0000186658       -2.1781479293
  C        24.6035760993       -0.0003836664       -5.3536152328
  C        25.6940604540        0.7136928507       -4.7807720038
  C        23.4258127070        0.7137884266       -5.7155730514
  C        22.2002659329       -0.0005431107       -5.8383288839
  C        20.9747366187        0.7137884323       -5.7159946655
  C        19.7967923381       -0.0003702587       -5.3545560675
  C        17.7286537597       -0.0001697067       -4.0333215519
  C        18.7060991884        0.7137337363       -4.7820786858
  C        16.1144231821        0.0001671780       -2.1784880010
  C        15.4393177654        0.7136183370       -1.1496002063
  C        16.8677667407        0.7136191380       -3.1527353640
  C        32.5163511593       11.4644564287        3.8454917330
  C        30.9050510328       11.4637893367        1.9886974074
  C        29.5982221015       11.4636144397       -0.0959685289
  C        28.2869339169       11.4635378321       -2.1781862099
  C        26.6712830911       11.4636650428       -4.0317698321
  C        25.6940734357       10.7496544648       -4.7808782004
  C        24.6036060124       11.4638331110       -5.3536994016
  C        23.4258264877       10.7495315262       -5.7155364510
  C        22.2003069777       11.4639332275       -5.8384713301
  C        20.9747809794       10.7495574968       -5.7158616878
  C        19.7968110667       11.4638729811       -5.3545790591
  C        18.7060408682       10.7496960071       -4.7822488278
  C        31.6554686178       10.7504431446        2.9648032609
  C        30.2324545295       10.7501423005        0.9582415359
  C        28.9621508528       10.7500588187       -1.1493229944
  C        27.5326473082       10.7499214320       -3.1516047218
  C        31.6534235417        9.3141747771        2.9657674428
  C        30.9030057321        8.6002660207        1.9895695418
  C        30.2319182732        9.3136630275        0.9583157140
  C        29.5973826618        8.6001171174       -0.0957297206
  C        28.9619726322        9.3135172655       -1.1493770291
  C        28.2865352198        8.6000455309       -2.1780937892
  C        27.5325477688        9.3135371790       -3.1516648909
  C        26.6714263889        8.5998288081       -4.0320507188
  C        25.6941177691        9.3137670684       -4.7809502459
  C        24.6036583115        8.5996677014       -5.3538119085
  C        23.4258588720        9.3138551694       -5.7156244928
  C        22.2003237600        8.5995331376       -5.8384615573
  C        20.9747866906        9.3138456434       -5.7161171058
  C        19.7968611698        8.5996892833       -5.3547127500
  C        18.7061307811        9.3138119750       -4.7823664561
  C        17.7287624494        8.5998749199       -4.0336809828
  C        17.7288524666        7.1637725716       -4.0338185296
  C        18.7062152477        6.4496835790       -4.7824899269
  C        19.7968937702        7.1639039925       -5.3548664844
  C        20.9748604555        6.4495655674       -5.7160438625
  C        22.2003684304        7.1639778928       -5.8386012066
  C        23.4258718230        6.4495560517       -5.7156553774
  C        24.6036593992        7.1638521843       -5.3538187374
  C        25.6941781651        6.4496445398       -4.7811221922
  C        26.6714180136        7.1637213146       -4.0321302289
  C        27.5324624986        6.4499348026       -3.1517242033
  C        28.2864531944        7.1635754503       -2.1781390632
  C        28.9613984541        6.4500888783       -1.1491770237
  C        29.5970618144        7.1637157871       -0.0957165281
  C        30.2308902701        6.4501602290        0.9586110173
  C        30.9021451738        7.1638523382        1.9896979283
  C        30.2311530833        5.0136757640        0.9585854680
  C        29.5973015996        4.3001163222       -0.0957560799
  C        28.9615585108        5.0135377695       -1.1492264447
  C        28.2864515358        4.3000285475       -2.1780916199
  C        27.5325331456        5.0135288261       -3.1517422177
  C        26.6714290402        4.2997695277       -4.0320906088
  C        25.6941527655        5.0137187288       -4.7810426011
  C        24.6036215657        4.2996086321       -5.3537720012
  C        23.4258586891        5.0138387484       -5.7156222771
  C        22.2003357405        4.2994768038       -5.8384952401
  C        20.9748196433        5.0138213810       -5.7161683806
  C        19.7969000769        4.2996256085       -5.3547524505
  C        18.7062021528        5.0137755509       -4.7824506352
  C        17.7288867566        4.2998339787       -4.0336185345
  C        16.8677227004        5.0136540307       -3.1534962726
  C        16.8677465251        6.4499920282       -3.1536026387
  C        14.8034175646        0.0003238738       -0.0960453669
 Na         9.6666351260        6.3544015398        7.6413096101
