     108
 i =      320, E =      -595.3579308894
  C        -0.7650255111        0.0234846045       -0.8255560335
  C         3.5060296483       -7.3633472492       -0.0964392236
  C         6.3613581990       -7.3636715254       -0.0936121668
  C        -0.7571201716       -9.8323476137        0.0153229730
  C         4.2337604919        1.2421449693       -0.5739833680
  C         5.6170572234        1.2776469850       -0.5639618164
  C         6.3646140682        0.0466369791       -0.6620314055
  C         2.0830322095       -4.8923441837       -0.2697176970
  C         1.3453862177      -11.0465496841        0.0990732333
  C         5.6168336553      -11.0476607972        0.0992468835
  C         2.0897642930       -7.3627784804       -0.0993580544
  C         5.6486603516       -8.6005476721       -0.0208704679
  C         3.5116235961       -4.8927685401       -0.2659704683
  C         1.3705275740       -3.6613890511       -0.3730799474
  C         5.6448753043       -6.1240201475       -0.1774183103
  C        -0.0516983699       -3.6627950274       -0.3923257304
  C         4.2513581262      -11.0472275754        0.0969046364
  C         1.3731590855       -6.1232784935       -0.1825758953
  C         4.2223356220       -6.1248554208       -0.1773387409
  C         4.2188589203       -8.6007887421       -0.0233129442
  C         5.6513869360       -1.1838169482       -0.5470919011
  C         4.2201692560       -1.1948123758       -0.5308120260
  C         3.5067005452        0.0339411923       -0.6145798171
  C         2.0761085828        0.0355756814       -0.6778149878
  C         1.3412861688        1.2381103506       -0.8525018982
  C        -0.0236574006        1.2311754433       -0.9269059379
  C        -0.0201322271      -11.0463957898        0.0893609062
  C        -0.7617399473       -4.8924007998       -0.2890487429
  C         6.3542543432       -9.8329118388        0.0431561524
  C        -0.0499119577       -6.1236380568       -0.1875608196
  C        -0.7655601624       -7.3625962130       -0.1092937075
  C         6.3603250976       -2.4261402100       -0.4813241831
  C        -0.0525858109       -8.6002050344       -0.0384503012
  C         1.3771079463       -8.5998988226       -0.0309235491
  C         2.0826843581       -9.8321787541        0.0353219942
  C         3.5140913167       -9.8323373092        0.0379850305
  C        -0.7699659660       -2.4318192180       -0.5360869362
  C         6.3548359744       -4.8931250122       -0.2721932941
  C         5.6429939266       -3.6612589942       -0.3671386005
  C         4.2236695971       -3.6634606628       -0.3579403387
  C         3.5079498441       -2.4268469893       -0.4504402461
  C         2.0866042604       -2.4266209631       -0.4653119839
  C         1.3705309655       -1.1941415999       -0.5925804311
  C        -0.0593584597       -1.1986678697       -0.6492477587
  C         7.7691707225        0.0097420179       -0.9093345492
  C        12.0485310688       -7.3646579608       -0.1135750501
  C        14.9037070528       -7.3631944645       -0.1136901755
  C         7.7855614688       -9.8330108438        0.0433757274
  C        12.7868384592        1.1992349620       -1.2178905463
  C        14.1518818608        1.2117065925       -1.1325462130
  C        14.8918106501        0.0162167963       -0.9060668025
  C        10.6249438827       -4.8968904019       -0.3083583240
  C         9.8888606272      -11.0483398831        0.0954947956
  C        14.1606864582      -11.0496925770        0.0257405935
  C        10.6324212699       -7.3649642170       -0.1075755351
  C        14.1914123231       -8.6011311202       -0.0532700322
  C        12.0529351392       -4.8964523324       -0.3173072669
  C         9.9128812435       -3.6696350858       -0.4353717505
  C        14.1863736629       -6.1248337354       -0.2007868592
  C         8.4944283077       -3.6677552078       -0.4041925290
  C        12.7949653376      -11.0495113268        0.0277477659
  C         9.9153211319       -6.1261323952       -0.1919681731
  C        12.7641921649       -6.1262320228       -0.2035014591
  C        12.7616406691       -8.6018584828       -0.0519691153
  C        14.1851130550       -1.2086105650       -0.7609586881
  C        12.7550435390       -1.2162517160       -0.8154778618
  C        12.0461249046       -0.0054239709       -1.0591137384
  C        10.6194723715       -0.0198388939       -1.1118193353
  C         9.8606397347        1.1266944277       -1.5110823553
  C         8.4888302061        1.1338291452       -1.4179269923
  C         8.5233308467      -11.0473511620        0.1065180133
  C         7.7828676668       -4.8944238963       -0.2781254630
  C        14.8975196752       -9.8336911545       -0.0014580059
  C         8.4933286116       -6.1263726542       -0.1840199757
  C         7.7772467751       -7.3644635133       -0.0953130838
  C        14.8982870721       -2.4348266790       -0.5720141775
  C         8.4901571482       -8.6016564666       -0.0240998831
  C         9.9199259399       -8.6017589586       -0.0324891766
  C        10.6259143770       -9.8343251335        0.0210669649
  C        12.0571038820       -9.8341944062        0.0017101498
  C         7.7775024751       -2.4328754328       -0.5229995878
  C        14.8957034563       -4.8939714260       -0.3023217968
  C        14.1831607651       -3.6677622231       -0.4405488557
  C        12.7628452046       -3.6699836132       -0.4570553904
  C        12.0452632776       -2.4420230327       -0.6336631816
  C        10.6274562230       -2.4427835157       -0.6230625715
  C         9.9126888732       -1.2209207636       -0.8246465928
  C         8.4832059472       -1.2134649517       -0.7457377097
  H        -0.5372487783        2.1766278079       -1.0688533585
  H         1.8576143464        2.1878392363       -0.9530708885
  H         3.6890593449        2.1735216378       -0.4405079947
  H        14.6783901792      -12.0028672162        0.0432919472
  H         7.9329239011        1.9752448395       -1.8286173151
  H        10.3654244897        1.9543916255       -2.0080591857
  H        12.2686561837        2.1355811154       -1.4064507684
  H        14.6709396570        2.1572005205       -1.2534538493
  H        -0.5381374373      -11.9981066731        0.1435475204
  H         1.8627477185      -11.9981781802        0.1587594488
  H         3.7337216383      -11.9996880271        0.1394403962
  H         6.1343066424      -12.0001055598        0.1431303015
  H         8.0057277716      -11.9989530922        0.1661998697
  H        10.4065050268      -12.0002546568        0.1485248841
  H        12.2774005088      -12.0028744854        0.0470716354
  C         6.2213514637        2.5828983738       -0.2366123316
  H         5.1072505713        3.4033530253       -1.5712359560
  O         5.7263691432        3.6867027932       -0.8704974335
  O         7.1157304909        2.7662136496        0.5980362578
 Na         9.2550969265        3.1401468946        0.6019431888
