     193
 i =       62, E =     -1140.4808893505
  C        -0.0004347209        0.0030636277       -0.0932159951
  C        16.1391987678        2.8650340624       -2.1587988339
  C        15.4570155145        2.1520263018       -1.1323631967
  C        16.8911562039        2.1525562870       -3.1341803524
  C        17.7464581738        2.8667207030       -4.0203444376
  C        18.7167007868        2.1529003128       -4.7776577692
  C        19.8035032827        2.8672175756       -5.3569546149
  C        20.9799463160        2.1528886224       -5.7220749491
  C        23.4305443915        2.1529220955       -5.7205575802
  C        22.2052808564        2.8673332206       -5.8458224744
  C        26.6728378488        2.8668745894       -4.0301077414
  C        24.6073946781        2.8670954898       -5.3558529566
  C        25.6967478562        2.1529620111       -4.7807381406
  C        28.9617684375        2.1531668610       -1.1455112280
  C        27.5321791446        2.1531020361       -3.1478925042
  C        28.2860144638        2.8666177557       -2.1740841196
  C        28.9619837782        0.7166102292       -1.1456666739
  C        17.7431379092       11.4676138753       -4.0225812849
  C        16.1317603004       11.4678341704       -2.1633032397
  C        14.8095986383       11.4679103625       -0.0842135884
  C        13.4946118796       11.4679342517        1.9993650856
  C        11.8760430155       11.4677441079        3.8510972982
  C        10.8959361069       10.7537126094        4.5964612716
  C         9.8040421845       11.4674674668        5.1663940134
  C         8.6254252993       10.7530879649        5.5254330479
  C         7.3999154112       11.4674080478        5.6469817397
  C         6.1743372628       10.7530299999        5.5246491814
  C         4.9964563930       11.4671710072        5.1630990108
  C         3.9055167833       10.7530067193        4.5910772977
  C        16.8872180144       10.7550258563       -3.1365740562
  C        15.4511659875       10.7561132427       -1.1361707285
  C        14.1713149096       10.7561808387        0.9699524041
  C        12.7395833353       10.7550640828        2.9728698284
  C        16.8884342810        9.3187826029       -3.1367982477
  C        16.1345131109        8.6065066051       -2.1625841530
  C        15.4525559268        9.3200412805       -1.1360171608
  C        14.8119729958        8.6098406627       -0.0823248580
  C        14.1723040133        9.3202085234        0.9718211907
  C        13.4963053114        8.6067658329        2.0023259087
  C        12.7402627823        9.3191237953        2.9748078681
  C        11.8764745681        8.6043365649        3.8524069900
  C        10.8960251214        9.3178787871        4.5972669691
  C         9.8035529595        8.6032368434        5.1661664408
  C         8.6252231897        9.3174265543        5.5259968502
  C         7.3995462327        8.6028693706        5.6471785601
  C         6.1741158194        9.3173453711        5.5246383256
  C         4.9960283869        8.6029311488        5.1638217210
  C         3.9055331678        9.3171222047        4.5909358268
  C         2.9279758176        8.6030575273        3.8422617476
  C         2.9279837912        7.1669708157        3.8421985329
  C         3.9051490121        6.4530269871        4.5913728807
  C         4.9959510833        7.1671910691        5.1636430331
  C         6.1738944767        6.4529894965        5.5249077998
  C         7.3993981092        7.1673848287        5.6472143244
  C         8.6249967053        6.4530708446        5.5257019797
  C         9.8036207867        7.1674973855        5.1670007661
  C        10.8962954745        6.4534219716        4.5986224610
  C        11.8770625723        7.1682780156        3.8546296824
  C        12.7428331013        6.4543349579        2.9794675104
  C        13.4982548930        7.1704938253        2.0084801682
  C        14.1748450360        6.4563104153        0.9782344635
  C        14.8120337717        7.1718242900       -0.0816006224
  C        15.4566077519        6.4562190511       -1.1361666716
  C        16.1388746655        7.1700234476       -2.1631661411
  C        15.4603178282        5.0148919223       -1.1329979875
  C        14.8196083289        4.3000289299       -0.0764925056
  C        14.1791004733        5.0148425047        0.9807561685
  C        13.5022772680        4.3011705570        2.0113054282
  C        12.7441137337        5.0172196769        2.9803335825
  C        11.8785517335        4.3029644983        3.8557375966
  C        10.8965887525        5.0175812415        4.5986765369
  C         9.8039935171        4.3031804816        5.1671143488
  C         8.6251383826        5.0175628360        5.5255581934
  C         7.3995919223        4.3029953306        5.6468187550
  C         6.1740192255        5.0173481918        5.5245021220
  C         4.9960764962        4.3029213538        5.1633795496
  C         3.9052559191        5.0171194714        4.5911091477
  C         2.9278008526        4.3030128948        3.8423347616
  C         2.0672278273        5.0168312698        2.9613304212
  C         2.0670753392        6.4532171834        2.9614793258
  C         1.3132121039        4.3031688701        1.9876625212
  C         1.3131782895        2.8666565792        1.9876707854
  C         2.0671725753        2.1531376812        2.9613572186
  C         2.9281984501        2.8669112893        3.8419624218
  C         3.9056052873        2.1530037378        4.5908363649
  C         4.9962814922        2.8671895967        5.1632936513
  C         6.1743967769        2.1530071802        5.5240561597
  C         7.3998064956        2.8675266923        5.6464133521
  C         8.6255948173        2.1532148137        5.5257617012
  C         9.8040996158        2.8674128217        5.1663339860
  C        10.8972850108        2.1531935736        4.5983787536
  C        11.8782451978        2.8668236616        3.8539314801
  C        12.7428896274        2.1524223283        2.9769856690
  C        13.5006782501        2.8648848238        2.0057722686
  C        14.1769972621        2.1518825708        0.9752478784
  C        14.8187152878        2.8623674746       -0.0775104927
  C        14.1731820742        0.7157973427        0.9713486874
  C        13.4953725960        0.0037045244        1.9999244404
  C        12.7408426844        0.7164331978        2.9739737041
  C        11.8766117754        0.0033914678        3.8515358068
  C        10.8965359358        0.7173303555        4.5969893244
  C         9.8043202483        0.0032701890        5.1665825726
  C         8.6256311941        0.7175480347        5.5253395524
  C         7.4000436584        0.0030023244        5.6470022890
  C         6.1745681446        0.7173334167        5.5239316506
  C         4.9964710469        0.0029282728        5.1631101637
  C         2.9282341681        0.0030058917        3.8419739381
  C         3.9057249143        0.7171139181        4.5907048823
  C         2.0673755295        0.7167680622        2.9611922618
  C         1.3131216854        0.0031294689        1.9877022870
  C         0.6374533532        0.7166164666        0.9590656835
  C         0.6372356182        2.1531731637        0.9592295677
  C        27.5322807110        0.7167181155       -3.1480260386
  C        29.5999505396        2.8665978464       -0.0934206680
  C        26.6724728835        0.0029803803       -4.0298230489
  C        16.1428950869        4.3013257183       -2.1597326118
  C        28.2857064456        0.0031188810       -2.1738924225
  C        24.6071321560        0.0028558642       -5.3556024404
  C        25.6966260029        0.7170470635       -4.7807446802
  C        23.4302898081        0.7172324607       -5.7201026730
  C        22.2048756262        0.0028258749       -5.8446375002
  C        20.9796311657        0.7172585429       -5.7212877404
  C        19.8027123910        0.0030602483       -5.3564892075
  C        17.7436129239        0.0033931956       -4.0220380654
  C        18.7160899196        0.7171905466       -4.7772899983
  C        16.1325097725        0.0038287105       -2.1625226528
  C        15.4528851723        0.7158862127       -1.1346940739
  C        16.8887850817        0.7164096797       -3.1351203865
  C        32.5283533626       11.4669345984        3.8418788077
  C        30.9133897803       11.4666547611        1.9875443722
  C        29.5998505605       11.4666291268       -0.0933499463
  C        28.2859749015       11.4666500560       -2.1740583093
  C        26.6726287883       11.4668866503       -4.0299048037
  C        25.6965298817       10.7529893679       -4.7805020554
  C        24.6071040854       11.4670805948       -5.3554989677
  C        23.4301235657       10.7528898715       -5.7195678831
  C        22.2048082825       11.4673070362       -5.8444764757
  C        20.9794253912       10.7531759797       -5.7212959294
  C        19.8024855608       11.4673919361       -5.3566779952
  C        18.7153846977       10.7536063125       -4.7780313387
  C        31.6672640588       10.7531640276        2.9613522401
  C        30.2372505511       10.7532128201        0.9592269919
  C        28.9618230012       10.7532346475       -1.1455350623
  C        27.5322539840       10.7531594077       -3.1479443507
  C        31.6673306470        9.3168127399        2.9612631474
  C        30.9131491195        8.6031993111        1.9877130031
  C        30.2375066483        9.3166722758        0.9590471944
  C        29.5996463526        8.6031159866       -0.0932456945
  C        28.9621012494        9.3166890963       -1.1456984075
  C        28.2860373418        8.6032024045       -2.1740639999
  C        27.5324632222        9.3167842003       -3.1480806450
  C        26.6726968891        8.6030266545       -4.0298845567
  C        25.6967641006        9.3170981599       -4.7806480776
  C        24.6072202220        8.6029205963       -5.3553461665
  C        23.4303403843        9.3172589538       -5.7198435739
  C        22.2050429349        8.6029569526       -5.8450246511
  C        20.9796548872        9.3175773244       -5.7218063443
  C        19.8029586511        8.6032651375       -5.3573464613
  C        18.7155895319        9.3178501139       -4.7789000855
  C        17.7446697803        8.6041683779       -4.0221652144
  C        17.7461293575        7.1680218389       -4.0227005237
  C        18.7173645236        6.4532523532       -4.7787844784
  C        19.8035727649        7.1675891654       -5.3581757197
  C        20.9802546365        6.4530495929       -5.7230517632
  C        22.2054733956        7.1674890096       -5.8458914403
  C        23.4307413965        6.4530294353       -5.7204475570
  C        24.6075046152        7.1671745277       -5.3556597192
  C        25.6968353535        6.4529907163       -4.7806001499
  C        26.6728905992        7.1669167624       -4.0299633780
  C        27.5325698316        6.4531738998       -3.1480815631
  C        28.2862964508        7.1666978065       -2.1742039171
  C        28.9619710857        6.4532337659       -1.1456063753
  C        29.5999649655        7.1666568114       -0.0934059406
  C        30.2372267021        6.4532317931        0.9592508091
  C        30.9133360256        7.1667080463        1.9875708819
  C        30.2374614058        5.0166552901        0.9590808268
  C        29.5995456507        4.3030713504       -0.0931777088
  C        28.9621937848        5.0166474110       -1.1457523686
  C        28.2860832364        4.3031328441       -2.1740860280
  C        27.5326789098        5.0167628518       -3.1482109695
  C        26.6726143736        4.3029976424       -4.0297513947
  C        25.6968925811        5.0170660916       -4.7808140261
  C        24.6075602436        4.3028800743       -5.3560050911
  C        23.4308467536        5.0173573841       -5.7207375339
  C        22.2056157346        4.3028567915       -5.8463070804
  C        20.9803534041        5.0174677295       -5.7231650716
  C        19.8038433819        4.3029105091       -5.3579831234
  C        18.7177611682        5.0175402973       -4.7783842093
  C        17.7472382964        4.3027997408       -4.0215116812
  C        16.8944978441        5.0169936521       -3.1337187987
  C        16.8931506440        6.4540853517       -3.1350762444
  C        14.8102801654        0.0038652974       -0.0835733335
 Na        16.8809927055        5.8766237554        1.1717618410
