     130
 i =      100, E =      -710.2498965281
  C         8.5802879595       14.9061290445       -0.0001908505
  C         9.8083600698       15.5925846279       -0.0001903793
  C        11.0359468535       14.9067439954       -0.0003657254
  C        12.2639778464       15.5936866891       -0.0002702319
  C        13.4922452087       14.9084372462       -0.0000388628
  C        14.7201549561       15.5954230932        0.0000852191
  C        15.9487322458       14.9100684689        0.0003375413
  C        17.1771135355       15.5962570111        0.0002440453
  C        18.4050681734       14.9098711370        0.0002693714
  C        19.6340523186       15.5952103539        0.0002736335
  C        20.8613881221       14.9080421333        0.0004154339
  C        22.0900402134       15.5934638854        0.0004773186
  C        23.3175838595       14.9066671175        0.0004798928
  C        24.5454035704       15.5926224129        0.0002766500
  C        25.7731281516       14.9063174942        0.0001263116
  C        27.0009393369       15.5924455045       -0.0000189065
  C        25.7721901237       13.4599987296        0.0000530138
  C        23.3164782614       13.4607471117        0.0005043584
  C        20.8604158113       13.4623474336        0.0004294084
  C        18.4042130404       13.4639623263        0.0002121447
  C        15.9477657624       13.4640153808        0.0003341144
  C        14.7186402171       12.7537308147        0.0002005528
  C        13.4912369404       13.4625303767        0.0000612816
  C        12.2626893417       12.7521221253        0.0000537853
  C        11.0350671176       13.4609031718       -0.0001697251
  C         9.8068288693       12.7506879318        0.0000276666
  C         8.5795197358       13.4602171499       -0.0000890712
  C         7.3511125214       12.7498381095        0.0000194307
  C        24.5431907533       12.7502022708        0.0002050052
  C        22.0876775146       12.7519275586        0.0004985740
  C        19.6316778080       12.7537568462        0.0001704402
  C        17.1751040772       12.7545126118        0.0001790860
  C        24.5404066574       11.3158376518       -0.0003518824
  C        23.3117471932       10.6041627242       -0.0009749106
  C        22.0849528051       11.3179080148       -0.0002257445
  C        20.8553450412       10.6066515807       -0.0007589091
  C        19.6286673857       11.3198023072       -0.0001969642
  C        18.3992353676       10.6084220121       -0.0005599934
  C        17.1720371816       11.3206188175       -0.0001689010
  C        15.9433502940       10.6085585740       -0.0001242298
  C        14.7156042286       11.3199024143        0.0002011037
  C        13.4869614476       10.6069141128        0.0004243247
  C        12.2595342354       11.3181238489        0.0004463688
  C        11.0305193020       10.6045761069        0.0007259565
  C         9.8035146264       11.3161594005        0.0003927309
  C         8.5746472236       10.6026081468        0.0000876497
  C         7.3479021427       11.3151148464       -0.0000805696
  C         6.1194478974       10.6023594299       -0.0006664295
  C         6.1173746133        9.1712691246       -0.0022607550
  C         7.3443458292        8.4576693723       -0.0023082940
  C         8.5726092788        9.1718743312       -0.0004737150
  C         9.8002532951        8.4600279415        0.0004642188
  C        11.0283112830        9.1739208779        0.0009481805
  C        12.2562584112        8.4626557175        0.0009757404
  C        13.4847426477        9.1766827914        0.0005692785
  C        14.7123283423        8.4658327000        0.0002345703
  C        15.9413459132        9.1789106333       -0.0004155888
  C        17.1685110375        8.4670077315       -0.0013512277
  C        18.3973777767        9.1789377671       -0.0015243145
  C        19.6247148751        8.4659029063       -0.0027045493
  C        20.8533423742        9.1766613490       -0.0022380900
  C        22.0805405789        8.4624711030       -0.0035169866
  C        23.3095559963        9.1733133768       -0.0028562486
  C        22.0778002557        7.0326032007       -0.0047692886
  C        20.8476389638        6.3226765374       -0.0032956110
  C        19.6219042956        7.0361743272       -0.0035044742
  C        18.3928233989        6.3253194633       -0.0024737230
  C        17.1663709899        7.0372932052       -0.0018450460
  C        15.9384497082        6.3255807194       -0.0009516519
  C        14.7110628459        7.0362844028        0.0003283501
  C        13.4833926743        6.3230885190        0.0014297934
  C        12.2552722149        7.0326504772        0.0018080710
  C        11.0266294794        6.3181241013        0.0029015147
  C         9.7990980927        7.0292237140        0.0007874637
  C         8.5704104415        6.3143957318       -0.0013529059
  C         7.3422182609        7.0261049162       -0.0034579167
  C         6.1131957855        6.3123655602       -0.0046277478
  C         4.8855537745        7.0275002715       -0.0060987104
  C         4.8880608363        8.4584340421       -0.0041405082
  C         3.6559357142        6.3174784157       -0.0058276082
  C         3.6502426697        4.8828125202        0.0025667897
  C         4.8750963696        4.1674625487        0.0068630721
  C         6.1092430581        4.8765094213        0.0011707624
  C         7.3404113882        4.1695608421        0.0065982781
  C         8.5695218795        4.8798470327        0.0029755333
  C         9.7989040831        4.1715109841        0.0091090168
  C        11.0264868994        4.8831071003        0.0045985431
  C        12.2571425979        4.1771261649       -0.0012854098
  C        13.4830718799        4.8898073963       -0.0002628769
  C        14.7103464147        4.1815216455       -0.0022979634
  C        15.9367788749        4.8927283233       -0.0012073168
  C        17.1624089587        4.1831757457        0.0013909080
  C        18.3895396318        4.8925065184        0.0014727817
  C        19.6145184684        4.1815899192        0.0114297092
  C        20.8426151500        4.8894266519        0.0066670536
  C        19.6135343796        2.7371551869        0.0347555892
  C        18.3872396003        2.0521174684        0.0265344307
  C        17.1618994579        2.7384552114        0.0074128939
  C        15.9368415683        2.0517914804        0.0012181898
  C        14.7109106397        2.7368868497       -0.0055055963
  C        13.4860419226        2.0500467156       -0.0158842431
  C        12.2614831260        2.7334603215       -0.0161555333
  C        11.0349410052        2.0445710201       -0.0327893688
  C         9.8102834770        2.7240898192       -0.0060672135
  C         8.5698438177        2.0604319465        0.0068591117
  C         6.1003948887        2.0270251546        0.0744733210
  C         7.3344617473        2.7219744010        0.0380605559
  C         4.8665443310        2.7216225119        0.0536355659
  C         3.6421726302        2.0464779884        0.0975747419
  C         2.4163192488        2.7329746352        0.0656015225
  C         2.4192738435        4.1766433067        0.0195616154
  C         1.1898248851        2.0501906570        0.0724901032
  H        27.0011018547       16.6814263680        0.0002304969
  H        24.5457965305       16.6816112846        0.0002586420
  H        22.0909605848       16.6825020253        0.0002962767
  H        17.1773232577       16.6852283370        0.0001272016
  H        14.7194257616       16.6844235151       -0.0001611741
  H        12.2631757127       16.6827292019       -0.0001373181
  H         9.8081292776       16.6816182958        0.0000641131
  H         1.1860976187        0.9618651683        0.1067559125
  H         3.6337116519        0.9584033108        0.1498396690
  H         6.0925689320        0.9667485198        0.3323009242
  H        19.6351044336       16.6842205838        0.0003778639
  H        11.0791265776        0.9559579122       -0.0653249091
  H        13.4897745003        0.9611917036       -0.0226015863
  H        15.9376440894        0.9628607621        0.0041602147
  H        18.3859163599        0.9631915246        0.0407490216
  O         8.4999915553        0.6572588395       -0.1364011428
  H         9.3328125480        0.2630909692        0.1764136634
 Na         7.0176707759        0.8525579144       -1.9907694309
