     129
 i =      110, E =      -690.7800207516
  C         8.5999335763       14.9715323501        0.0459270424
  C         9.8285142558       15.6595033168        0.0576665281
  C        11.0564043151       14.9716996498        0.0559738970
  C        12.2854871372       15.6594032919        0.0431935218
  C        13.5128618881       14.9711822415        0.0161327967
  C        14.7406469670       15.6595477062       -0.0313639736
  C        15.9684044570       14.9719537955       -0.0700897637
  C        17.1956756200       15.6608272772       -0.1178404163
  C        18.4240208901       14.9730744320       -0.1382697092
  C        19.6527958309       15.6611651427       -0.1504881784
  C        20.8806686981       14.9727401597       -0.1487470145
  C        22.1099990200       15.6600635499       -0.1357120153
  C        23.3372017739       14.9710873965       -0.1078994430
  C        24.5650224931       15.6590281895       -0.0597348302
  C        25.7925498355       14.9709842799       -0.0210024334
  C        27.0197580841       15.6593398465        0.0264949253
  C        25.7911707848       13.5196781838       -0.0297892608
  C        23.3357911299       13.5198228333       -0.1118098364
  C        20.8794880287       13.5210906102       -0.1485574959
  C        18.4229037079       13.5212996462       -0.1318835149
  C        15.9672672677       13.5206445214       -0.0611595244
  C        14.7388412301       12.8086688262       -0.0178030363
  C        13.5116806400       13.5199407200        0.0200839904
  C        12.2831758122       12.8077585132        0.0453975684
  C        11.0553925540       13.5200250658        0.0557180947
  C         9.8266613493       12.8077414035        0.0523218858
  C         8.5987913831       13.5196951531        0.0396807567
  C         7.3697164083       12.8075358335        0.0074794552
  C        24.5628769355       12.8079301692       -0.0731230783
  C        22.1071426937       12.8082658083       -0.1377046252
  C        19.6506221907       12.8090266991       -0.1448435417
  C        17.1939953123       12.8088349822       -0.0986433573
  C        24.5611304814       11.3690547992       -0.0746670930
  C        23.3322341275       10.6543785720       -0.1084106002
  C        22.1048077106       11.3690236184       -0.1337157491
  C        20.8757295005       10.6536400153       -0.1356721849
  C        19.6488949090       11.3698658485       -0.1377866353
  C        18.4205012890       10.6553129394       -0.1148257016
  C        17.1923136000       11.3698004060       -0.0905552604
  C        15.9643740056       10.6551152778       -0.0508425052
  C        14.7368306800       11.3699596880       -0.0163209298
  C        13.5082480753       10.6544637765        0.0168116330
  C        12.2807980818       11.3684654232        0.0418449692
  C        11.0517943007       10.6525178849        0.0437847099
  C         9.8249815874       11.3683736804        0.0456645027
  C         8.5963013581       10.6542128502        0.0231255737
  C         7.3679762191       11.3684191486       -0.0006820488
  C         6.1405040136       10.6533442414       -0.0401218410
  C         6.1401684480        9.2172763763       -0.0447191270
  C         7.3675583364        8.5014923018       -0.0301048217
  C         8.5969457815        9.2198901509        0.0003423005
  C         9.8210080632        8.5000954148       -0.0001922841
  C        11.0499970416        9.2160679129        0.0211496572
  C        12.2773134073        8.5007242885       -0.0001261282
  C        13.5087403847        9.2199684276        0.0000352956
  C        14.7350572611        8.5039517376       -0.0297110893
  C        15.9639208002        9.2197890374       -0.0471238040
  C        17.1912883550        8.5053410320       -0.0630352334
  C        18.4209661358        9.2206226112       -0.0926572778
  C        19.6448868365        8.5012957122       -0.0926764976
  C        20.8739321366        9.2176718361       -0.1129435459
  C        22.1012886919        8.5015795272       -0.0926194454
  C        23.3327904857        9.2200659007       -0.0923794087
  C        22.0998390996        7.0679996010       -0.0622823833
  C        20.8710045100        6.3542350728       -0.0502107321
  C        19.6443114203        7.0678845257       -0.0617263706
  C        18.4162797610        6.3549147156       -0.0483463883
  C        17.1897759965        7.0700808576       -0.0516216470
  C        15.9620091837        6.3548281120       -0.0469749080
  C        14.7339571091        7.0684688314       -0.0420740447
  C        13.5060424765        6.3510945932       -0.0497999333
  C        12.2778161168        7.0647976060       -0.0359241597
  C        11.0490832958        6.3464884591       -0.0537699109
  C         9.8206018942        7.0617979957       -0.0368852799
  C         8.5915748268        6.3451240700       -0.0537744664
  C         7.3644014163        7.0642186721       -0.0455653750
  C         6.1348676973        6.3501436139       -0.0512742172
  C         4.9078277624        7.0672192898       -0.0532142165
  C         4.9110666161        8.5027689947       -0.0628983853
  C         3.6784174824        6.3531475776       -0.0501485227
  C         3.6740760172        4.9148977983       -0.0320165143
  C         4.8986551004        4.2001429913       -0.0370174713
  C         6.1295831564        4.9099597874       -0.0567726276
  C         7.3541513107        4.1924338005       -0.0808092037
  C         8.5882063420        4.9035676058       -0.0811841639
  C         9.8192923448        4.1919244845       -0.1046151646
  C        11.0500968370        4.9051465082       -0.0916344875
  C        12.2815457284        4.1942695614       -0.1043342894
  C        13.5073600539        4.9114685050       -0.0735101918
  C        14.7360941370        4.2015300070       -0.0611021151
  C        15.9619610427        4.9163560248       -0.0460613095
  C        17.1883498004        4.2050207019       -0.0299263078
  C        18.4149788405        4.9175465250       -0.0290794397
  C        19.6407116195        4.2056498650       -0.0084983445
  C        20.8683052836        4.9170123720       -0.0224625424
  C        19.6394100305        2.7559577214        0.0299553914
  C        18.4129406162        2.0677004817        0.0317205146
  C        17.1868816202        2.7548847555       -0.0097555213
  C        15.9619454603        2.0655062529       -0.0318370472
  C        14.7359167524        2.7511234894       -0.0640164552
  C        13.5108482374        2.0608014324       -0.1002278628
  C        12.2862652394        2.7419678435       -0.1287967356
  C        11.0534686490        2.0501980991       -0.1551752375
  C         9.8202698581        2.7332026050       -0.1264594684
  C         8.5792546110        2.0452539093       -0.1467925136
  C         6.1211729613        2.0598919023       -0.0437023403
  C         7.3451564143        2.7391491030       -0.0940488004
  C         4.8959892291        2.7499413158       -0.0148328870
  C         3.6693535113        2.0653634434        0.0329012840
  C         2.4444182190        2.7544596551        0.0301749674
  C         2.4455417965        4.2041713193       -0.0092334111
  C         1.2169712303        2.0677432441        0.0531581969
  H        27.0201652171       16.7456993714        0.0347660715
  H        24.5657104510       16.7454499345       -0.0522912827
  H        22.1115430565       16.7464856834       -0.1344261877
  H        17.1957225692       16.7471923057       -0.1258680749
  H        14.7407185575       16.7459660013       -0.0385691373
  H        12.2864194476       16.7458143821        0.0421572219
  H         9.8292649578       16.7458774172        0.0595195990
  H         1.2151946046        0.9816978576        0.0839180453
  H         3.6663360781        0.9793942236        0.0621912341
  H         6.1147663640        0.9733923420       -0.0288898483
  H         8.5754575662        0.9612445304       -0.0288551175
  H        11.0597546847        0.9629816030       -0.0825599066
  H        13.5152919581        0.9743670199       -0.0962294058
  H        15.9630191449        0.9791866513       -0.0209181225
  H        18.4121468179        0.9815175793        0.0573220755
  H        19.6537488251       16.7475382692       -0.1521362906
 Na         9.5324065219        1.8960871411       -2.5461505247
