     129
 i =       64, E =      -690.7778297482
  C         8.5970396591       14.9706276247        0.0431116842
  C         9.8253168550       15.6589792389        0.0596825010
  C        11.0531042025       14.9715734898        0.0534516293
  C        12.2824767556       15.6589629710        0.0475268377
  C        13.5097739086       14.9706781782        0.0187333133
  C        14.7382162830       15.6584172077       -0.0201317807
  C        15.9662834587       14.9708395178       -0.0621394459
  C        17.1933713288       15.6605986211       -0.1028339950
  C        18.4217270302       14.9723095333       -0.1299799883
  C        19.6502068823       15.6611356736       -0.1465435035
  C        20.8778073247       14.9726328076       -0.1461935160
  C        22.1077662230       15.6593236539       -0.1368644961
  C        23.3352098555       14.9711597271       -0.1067652017
  C        24.5630228421       15.6591023368       -0.0620605844
  C        25.7902542176       14.9713502926       -0.0202046061
  C        27.0175595742       15.6591018067        0.0265832739
  C        25.7886343230       13.5206348335       -0.0342140970
  C        23.3329865371       13.5204676959       -0.1149246043
  C        20.8752654886       13.5210942723       -0.1482650916
  C        18.4200099029       13.5197421250       -0.1276659573
  C        15.9655463137       13.5186442150       -0.0522225679
  C        14.7361349389       12.8074468213       -0.0161598200
  C        13.5091501901       13.5194366854        0.0244095127
  C        12.2790760128       12.8091300838        0.0457111155
  C        11.0512493129       13.5201912561        0.0571336600
  C         9.8225604387       12.8070931847        0.0493099666
  C         8.5953970063       13.5190390224        0.0403435255
  C         7.3658559527       12.8077900494        0.0066460904
  C        24.5601586461       12.8096549602       -0.0736120914
  C        22.1033697585       12.8109156516       -0.1394294637
  C        19.6470781092       12.8067174423       -0.1430876271
  C        17.1921464844       12.8052207451       -0.0946164934
  C        24.5553106743       11.3716062924       -0.0801034134
  C        23.3246763342       10.6611159022       -0.1115278827
  C        22.0985082680       11.3732625550       -0.1337398384
  C        20.8726777609       10.6533122772       -0.1347641671
  C        19.6446503518       11.3661208938       -0.1368535398
  C        18.4183603396       10.6456080960       -0.1154919818
  C        17.1908370341       11.3643763063       -0.0837898964
  C        15.9608596526       10.6519020831       -0.0512437369
  C        14.7337276402       11.3687077302       -0.0117058999
  C        13.5016901009       10.6574631476        0.0222825467
  C        12.2748302531       11.3706661541        0.0418074684
  C        11.0439724711       10.6561228642        0.0455522901
  C         9.8162392528       11.3679044594        0.0454490604
  C         8.5870166533       10.6527312978        0.0230660642
  C         7.3617814478       11.3691339204       -0.0033105201
  C         6.1333492865       10.6554365163       -0.0409551591
  C         6.1301753117        9.2193894033       -0.0477495825
  C         7.3546977954        8.4992403938       -0.0311710729
  C         8.5800615562        9.2182403002       -0.0016764139
  C         9.8093431776        8.5022396825       -0.0018104101
  C        11.0377266121        9.2202874674        0.0288518494
  C        12.2659505925        8.5055785143        0.0058261537
  C        13.4939688015        9.2245989951        0.0058956854
  C        14.7246245301        8.5061912300       -0.0268487628
  C        15.9584592355        9.2166398397       -0.0434462520
  C        17.1880746032        8.5007406051       -0.0645639065
  C        18.4226094563        9.2058722149       -0.0931250037
  C        19.6545615692        8.4941520637       -0.0907941832
  C        20.8743392949        9.2175936297       -0.1059832807
  C        22.0979782283        8.5016349420       -0.0646205276
  C        23.3197846289        9.2301601290       -0.0874855997
  C        22.0978409703        7.0670912279       -0.0539892057
  C        20.8712101952        6.3504399870       -0.0466318291
  C        19.6453883020        7.0622918141       -0.0685954094
  C        18.4140147264        6.3537833747       -0.0464488868
  C        17.1856531466        7.0672937054       -0.0543537940
  C        15.9570331969        6.3545113797       -0.0459361987
  C        14.7280373808        7.0699735373       -0.0394633468
  C        13.5003258328        6.3522411943       -0.0405995736
  C        12.2717179561        7.0677024325       -0.0277999686
  C        11.0439238022        6.3479553693       -0.0478198770
  C         9.8142203022        7.0632589697       -0.0343622169
  C         8.5871748978        6.3440559716       -0.0568078451
  C         7.3584519530        7.0620838349       -0.0461037352
  C         6.1287280362        6.3507909542       -0.0538302926
  C         4.9017817561        7.0707222668       -0.0533600134
  C         4.9000426908        8.5078470360       -0.0636480009
  C         3.6757696673        6.3524358847       -0.0503286835
  C         3.6724713145        4.9141292953       -0.0329850189
  C         4.8968151216        4.1992002153       -0.0389989407
  C         6.1266248337        4.9100753364       -0.0610454585
  C         7.3512842917        4.1915444034       -0.0932075053
  C         8.5853286998        4.9023484845       -0.0829188538
  C         9.8166709798        4.1905493352       -0.1066354405
  C        11.0461805676        4.9056221835       -0.0774691133
  C        12.2780005246        4.1951239825       -0.0791872090
  C        13.5043394384        4.9117742506       -0.0605282708
  C        14.7334768325        4.2013880343       -0.0486593214
  C        15.9593072898        4.9161442636       -0.0462300432
  C        17.1866111397        4.2051219654       -0.0289870685
  C        18.4139327582        4.9168070339       -0.0362835319
  C        19.6396824240        4.2046688596       -0.0095760002
  C        20.8680744320        4.9142972133       -0.0262800934
  C        19.6385621819        2.7552761409        0.0245731172
  C        18.4119417649        2.0675513224        0.0295696107
  C        17.1857236165        2.7548253615       -0.0132579933
  C        15.9604772614        2.0655297723       -0.0244352834
  C        14.7335897296        2.7507979895       -0.0457516226
  C        13.5072775474        2.0614748586       -0.0600798106
  C        12.2824553397        2.7426727727       -0.0968792029
  C        11.0511693087        2.0497387418       -0.1332950435
  C         9.8183686930        2.7318078169       -0.1272188380
  C         8.5771978085        2.0427740285       -0.1618696298
  C         6.1199018651        2.0589258554       -0.0495644902
  C         7.3428285573        2.7380812219       -0.1051324130
  C         4.8948739486        2.7492008921       -0.0172720805
  C         3.6686598580        2.0645922774        0.0337383937
  C         2.4435212605        2.7530024442        0.0297956544
  C         2.4450393806        4.2021280458       -0.0097392122
  C         1.2159422985        2.0668617537        0.0526644941
  H        27.0181116504       16.7452658336        0.0350687004
  H        24.5645490614       16.7453236097       -0.0521207297
  H        22.1100117323       16.7457102799       -0.1337726003
  H        17.1937780420       16.7471404767       -0.1036400729
  H        14.7384986326       16.7449904749       -0.0254152063
  H        12.2837413764       16.7453908126        0.0450645878
  H         9.8267973302       16.7452919829        0.0596330766
  H         1.2144784311        0.9809469588        0.0820105594
  H         3.6655030242        0.9787766935        0.0632261873
  H         6.1128535776        0.9724277906       -0.0328133149
  H         8.5730644896        0.9605910151       -0.0226559195
  H        11.0582091263        0.9627001388       -0.0519956975
  H        13.5127800641        0.9749069570       -0.0492666663
  H        15.9621503935        0.9792070037       -0.0120109139
  H        18.4115386451        0.9813561510        0.0525949559
  H        19.6520552315       16.7475295273       -0.1448705416
 Na         9.5285013687        1.7386651522       -2.5459728383
