     193
 i =       61, E =     -1140.4815186313
  C         0.0010792414       -0.0010595190       -0.0933432203
  C        16.1116614858        2.8593559388       -2.1708194708
  C        15.4355314122        2.1472836733       -1.1418812687
  C        16.8648390033        2.1466515290       -3.1470318614
  C        17.7280488886        2.8581700600       -4.0281332144
  C        18.7063183824        2.1465496135       -4.7786491861
  C        19.7986728606        2.8606103471       -5.3503584163
  C        20.9769411155        2.1473180137       -5.7121283812
  C        23.4284898439        2.1479777398       -5.7124286633
  C        22.2028692451        2.8620685997       -5.8343012985
  C        26.6751708005        2.8625305662       -4.0302212597
  C        24.6067670339        2.8625255824       -5.3515047715
  C        25.6976260655        2.1484155098       -4.7791959002
  C        28.9640279458        2.1488466673       -1.1459380667
  C        27.5356158653        2.1487304666       -3.1490655416
  C        28.2888380280        2.8624031489       -2.1748202329
  C        28.9637567335        0.7123227335       -1.1459154269
  C        17.7256826695       11.4630845026       -4.0305426244
  C        16.1091983500       11.4628959926       -2.1739819809
  C        14.7973165545       11.4627957887       -0.0906826626
  C        13.4864918441       11.4624664387        1.9920959258
  C        11.8722913753       11.4625801129        3.8466469145
  C        10.8944286293       10.7484583549        4.5947540856
  C         9.8035547206       11.4627770566        5.1664747167
  C         8.6253913168       10.7483983826        5.5268146425
  C         7.3999270424       11.4628905763        5.6486754268
  C         6.1745180318       10.7484176303        5.5260126857
  C         4.9967252304       11.4628104478        5.1644990160
  C         3.9065145823       10.7485235479        4.5913495699
  C        16.8642468718       10.7508548379       -3.1482943688
  C        15.4346708031       10.7504224011       -1.1436440233
  C        14.1614690940       10.7493565671        0.9630673381
  C        12.7331807769       10.7488264898        2.9662710153
  C        16.8642990434        9.3150185926       -3.1473492607
  C        16.1114657114        8.6023435088       -2.1707676647
  C        15.4355540094        9.3142145884       -1.1416489983
  C        14.7992252201        8.6000585526       -0.0883642386
  C        14.1622018796        9.3129296091        0.9644006013
  C        13.4867194930        8.5991203814        1.9931496413
  C        12.7332662200        9.3125387311        2.9668842455
  C        11.8716330319        8.5986396191        3.8466209897
  C        10.8943637125        9.3126167420        4.5952012226
  C         9.8032352621        8.5985311254        5.1666341212
  C         8.6252682719        9.3127773996        5.5273021256
  C         7.3997658064        8.5984605308        5.6490953362
  C         6.1743797332        9.3128025588        5.5263562359
  C         4.9966868874        8.5985801008        5.1645391963
  C         3.9064171445        9.3126870020        4.5914820243
  C         2.9298052631        8.5987187325        3.8417750451
  C         2.9298018729        7.1626580897        3.8418342285
  C         3.9064844775        6.4485356430        4.5914469822
  C         4.9965571713        7.1628377087        5.1648558927
  C         6.1743304428        6.4484287862        5.5264156673
  C         7.3996937642        7.1629373402        5.6493981927
  C         8.6251206090        6.4484165195        5.5275089405
  C         9.8032139924        7.1628311691        5.1671325318
  C        10.8938572089        6.4484795422        4.5951397996
  C        11.8717804241        7.1626730893        3.8473833247
  C        12.7328791760        6.4486965822        2.9674589327
  C        13.4873880003        7.1626719735        1.9945980094
  C        14.1628763896        6.4488799811        0.9664214428
  C        14.7996612345        7.1635048956       -0.0860515016
  C        15.4362461010        6.4493050920       -1.1383825217
  C        16.1093814960        7.1654815238       -2.1681416981
  C        15.4361769243        5.0116502040       -1.1387653730
  C        14.7996891709        4.2979009963       -0.0862316625
  C        14.1630225687        5.0123117983        0.9663996426
  C        13.4871825478        4.2986480566        1.9943688424
  C        12.7331421969        5.0124681548        2.9676353339
  C        11.8717291999        4.2986049012        3.8472547074
  C        10.8940633600        5.0126562980        4.5953877995
  C         9.8031547038        4.2984801291        5.1668741901
  C         8.6251891135        5.0127576686        5.5276775396
  C         7.3997121663        4.2983935817        5.6490770417
  C         6.1742836693        5.0127673417        5.5267058946
  C         4.9966802618        4.2985491720        5.1645696189
  C         3.9063584970        5.0126595344        4.5916118053
  C         2.9298361726        4.2986805042        3.8417752075
  C         2.0695109183        5.0124337948        2.9606263501
  C         2.0694499632        6.4488253602        2.9606929557
  C         1.3151861012        4.2989108508        1.9872755190
  C         1.3153705377        2.8624276148        1.9870808243
  C         2.0694767189        2.1487493763        2.9605931548
  C         2.9298434035        2.8626057383        3.8417254949
  C         3.9065034236        2.1484739377        4.5913616900
  C         4.9966124569        2.8627937681        5.1647038662
  C         6.1744613220        2.1483574218        5.5259881609
  C         7.3997943509        2.8628577274        5.6492467620
  C         8.6252371884        2.1483524321        5.5269437716
  C         9.8033688692        2.8627655237        5.1667797621
  C        10.8943646046        2.1484692002        4.5950872359
  C        11.8718031484        2.8626158887        3.8467138455
  C        12.7333999861        2.1485962721        2.9669134172
  C        13.4867684680        2.8621733863        1.9931000007
  C        14.1620652629        2.1483150839        0.9641955314
  C        14.7991474367        2.8613728773       -0.0885542719
  C        14.1611501135        0.7119035491        0.9627963964
  C        13.4867180284       -0.0011492584        1.9921983707
  C        12.7332135956        0.7122860513        2.9662263971
  C        11.8723490792       -0.0013749897        3.8466426739
  C        10.8945646596        0.7125998352        4.5948462609
  C         9.8035343724       -0.0014926105        5.1663654419
  C         8.6254299920        0.7127166207        5.5269184358
  C         7.3999248697       -0.0016176520        5.6484933117
  C         6.1744874489        0.7127303747        5.5261798824
  C         4.9967784048       -0.0014808938        5.1643858550
  C         2.9298236486       -0.0013394818        3.8417255119
  C         3.9064979399        0.7126240423        4.5913623572
  C         2.0695921741        0.7123809770        2.9604589291
  C         1.3151662095       -0.0011062002        1.9871586715
  C         0.6390340506        0.7123224054        0.9588644048
  C         0.6389144968        2.1488557210        0.9590091376
  C        27.5349471094        0.7123509000       -3.1488022744
  C        29.6013127279        2.8624843290       -0.0933856646
  C        26.6744802288       -0.0012836921       -4.0300361284
  C        16.1108180065        4.2959672877       -2.1676004865
  C        28.2885575397       -0.0010812759       -2.1748225341
  C        24.6058925171       -0.0014047952       -5.3511774461
  C        25.6969081774        0.7124915902       -4.7788501007
  C        23.4277719411        0.7123738844       -5.7123221345
  C        22.2018283975       -0.0015717162       -5.8344896830
  C        20.9758736771        0.7118534182       -5.7124394415
  C        19.7969099856       -0.0015222818       -5.3517509732
  C        17.7255578288       -0.0013662792       -4.0306384906
  C        18.7049778779        0.7110543096       -4.7793007856
  C        16.1091912482       -0.0011972793       -2.1740939459
  C        15.4341627218        0.7111003424       -1.1440856230
  C        16.8638506009        0.7108128758       -3.1486955462
  C        32.5298795506       11.4626240825        3.8416640757
  C        30.9153694546       11.4624499292        1.9870308572
  C        29.6011956417       11.4625085056       -0.0934023867
  C        28.2884325807       11.4624496927       -2.1747268567
  C        26.6744373510       11.4626406217       -4.0299507241
  C        25.6970559338       10.7487366275       -4.7789919575
  C        24.6059243118       11.4628900844       -5.3510898273
  C        23.4278414594       10.7489694294       -5.7122929911
  C        22.2018955768       11.4631284151       -5.8344640422
  C        20.9760044658       10.7495562720       -5.7122589735
  C        19.7970222400       11.4632011020       -5.3517468443
  C        18.7051812626       10.7505465864       -4.7791088958
  C        31.6694574342       10.7488092629        2.9605787629
  C        30.2388525460       10.7489217163        0.9589827523
  C        28.9638034404       10.7489358601       -1.1459321092
  C        27.5351066173       10.7488799907       -3.1489185588
  C        31.6695376049        9.3124548937        2.9605530340
  C        30.9151967358        8.5989484331        1.9872130653
  C        30.2391131409        9.3124024785        0.9589114081
  C        29.6011568113        8.5990037041       -0.0932695199
  C        28.9641394465        9.3124269146       -1.1459819484
  C        28.2888939416        8.5990070726       -2.1748216295
  C        27.5356749936        9.3125164277       -3.1490778998
  C        26.6754326798        8.5988319031       -4.0304172411
  C        25.6977086943        9.3128253220       -4.7791415500
  C        24.6069655056        8.5989423088       -5.3517007722
  C        23.4286518513        9.3133685938       -5.7124044299
  C        22.2030332757        8.5993867572       -5.8341727997
  C        20.9771327582        9.3140684279       -5.7118662823
  C        19.7987748934        8.6009705828       -5.3502300742
  C        18.7063204230        9.3150170017       -4.7787166837
  C        17.7276702381        8.6037158132       -4.0285050973
  C        17.7267129804        7.1665754382       -4.0302868994
  C        18.7089753648        6.4502315356       -4.7785143807
  C        19.8016953353        7.1650310399       -5.3501989597
  C        20.9792517311        6.4488250024       -5.7115599577
  C        22.2044514140        7.1636611664       -5.8344558022
  C        23.4300578534        6.4485300532       -5.7132646319
  C        24.6077855771        7.1631280311       -5.3518814104
  C        25.6988429363        6.4486273642       -4.7799553519
  C        26.6759583792        7.1627397893       -4.0305868836
  C        27.5363129272        6.4488376943       -3.1493515878
  C        28.2893551615        7.1625243326       -2.1750172049
  C        28.9641909393        6.4489258313       -1.1459325941
  C        29.6015178276        7.1625502789       -0.0934180529
  C        30.2389022324        6.4489292478        0.9590985821
  C        30.9153667463        7.1624806020        1.9871589975
  C        30.2391896334        5.0123759977        0.9589234391
  C        29.6012589566        4.2989530222       -0.0932637990
  C        28.9643489857        5.0123800792       -1.1460361497
  C        28.2892459104        4.2988985805       -2.1749508116
  C        27.5362582567        5.0124245105       -3.1493468998
  C        26.6759715688        4.2986306248       -4.0306576919
  C        25.6986475073        5.0126439106       -4.7797179979
  C        24.6077368585        4.2983506847       -5.3519675333
  C        23.4299251287        5.0127497643       -5.7131154365
  C        22.2042889839        4.2978009774       -5.8347149371
  C        20.9790924989        5.0124071110       -5.7116192467
  C        19.8014281336        4.2964889988       -5.3504038900
  C        18.7086946644        5.0104209751       -4.7786467884
  C        17.7279235402        4.2948425397       -4.0290318247
  C        16.8622493624        5.0093419313       -3.1466863767
  C        16.8601792187        6.4513990890       -3.1479320455
  C        14.7976016579       -0.0011917142       -0.0906311439
 Na        19.1935533744        5.8766313692       -1.9222369824
