     193
 i =       26, E =     -1140.5793191043
  C        18.5338016002        2.1457041392       -0.8319994497
  C         6.3188486677       12.8962555244        3.5922967322
  C         7.5258554524       13.6099639611        3.8343471984
  C         8.7546530420       12.8963139345        3.9121867979
  C         9.9829838400       13.6099215515        3.8209005137
  C        11.1892336682       12.8964647419        3.5706669210
  C        12.3588065010       13.6096342525        3.1824204656
  C        13.4809870331       12.8962200117        2.6739503305
  C        14.5538031085       13.6093390446        2.0683195565
  C        15.5822665705       12.8962062424        1.3905144981
  C        16.5757213268       13.6092053783        0.6622235505
  C        17.5535211950       12.8960952267       -0.0867574341
  C        18.5340821984       13.6089458387       -0.8316278486
  C        19.5379835372       12.8958721346       -1.5449629517
  C        20.5762468757       13.6085703757       -2.2078618033
  C        21.6591624263       12.8958784398       -2.7954698116
  C        22.7877244486       13.6085359698       -3.2891789221
  C        21.6598815318       11.4595146841       -2.7932439455
  C        19.5392406218       11.4591754438       -1.5423949502
  C        17.5538473267       11.4593236305       -0.0857855760
  C        15.5821216675       11.4594997257        1.3906901393
  C        13.4809303555       11.4596341343        2.6740246635
  C        12.3587359951       10.7462685354        3.1825811323
  C        11.1892514058       11.4599808748        3.5708114024
  C         9.9830092721       10.7463262074        3.8211490134
  C         8.7546614570       11.4601507073        3.9123141428
  C         7.5258902722       10.7462000085        3.8344365318
  C         6.3188960816       11.4601459361        3.5923491797
  C         5.1513296692       10.7462255646        3.2044138713
  C        20.5784043514       10.7458344954       -2.2032308574
  C        18.5354622428       10.7458002210       -0.8287869378
  C        16.5757190298       10.7460333803        0.6628963946
  C        14.5536619005       10.7460858700        2.0684475419
  C        20.5789683318        9.3090174502       -2.2011911956
  C        19.5406120468        8.5956659433       -1.5389667541
  C        18.5359131689        9.3091448947       -0.8273543001
  C        17.5542579312        8.5960376313       -0.0843963695
  C        16.5757402587        9.3092464463        0.6634177791
  C        15.5820405436        8.5962071992        1.3911144566
  C        14.5535287793        9.3093879768        2.0686400447
  C        13.4807701469        8.5962719185        2.6742214373
  C        12.3586497293        9.3096709524        3.1827152253
  C        11.1891220499        8.5964865818        3.5709322461
  C         9.9829405417        9.3099758833        3.8213320981
  C         8.7546161404        8.5963619150        3.9125416174
  C         7.5258480911        9.3100361483        3.8345900084
  C         6.3188597894        8.5963122550        3.5925322353
  C         5.1513867456        9.3100266293        3.2044484077
  C         4.0320625904        8.5964187056        2.6932932394
  C         4.0320711034        7.1601104403        2.6932663001
  C         5.1513912967        6.4462176352        3.2044187588
  C         6.3188822017        7.1601768136        3.5925066811
  C         7.5258607033        6.4461986387        3.8345587815
  C         8.7546150509        7.1601682248        3.9125033033
  C         9.9829379907        6.4463094063        3.8212220875
  C        11.1891537050        7.1599807934        3.5709114926
  C        12.3585978922        6.4462774728        3.1825302195
  C        13.4808058940        7.1596789849        2.6741743269
  C        14.5535924908        6.4461011967        2.0686977164
  C        15.5821492584        7.1595270502        1.3912609040
  C        16.5757473954        6.4460080614        0.6634609792
  C        17.5542187261        7.1593608517       -0.0844073471
  C        18.5354904619        6.4456125060       -0.8278434476
  C        19.5403840515        7.1590965665       -1.5392693373
  C        18.5350752333        5.0089755768       -0.8294362469
  C        17.5535985722        4.2960214751       -0.0861154118
  C        16.5759461241        5.0092170852        0.6631724634
  C        15.5822827301        4.2961902672        1.3909580463
  C        14.5537343971        5.0093823206        2.0686097683
  C        13.4808842341        4.2962251221        2.6739947187
  C        12.3587277508        5.0096594127        3.1824916193
  C        11.1891763518        4.2964587177        3.5706274109
  C         9.9829694098        5.0099355165        3.8210475264
  C         8.7546484867        4.2963130700        3.9122917662
  C         7.5258661242        5.0100058807        3.8345265704
  C         6.3188980951        4.2962758416        3.5923283509
  C         5.1513688243        5.0099943887        3.2043784798
  C         4.0320242110        4.2964094025        2.6931886794
  C         2.9650475834        5.0098469185        2.0794764411
  C         2.9650392424        6.4463668820        2.0796455556
  C         1.9431673691        4.2964760043        1.3936336646
  C         1.9431131526        2.8598555979        1.3935085543
  C         2.9650155141        2.1463311096        2.0793574386
  C         4.0320531370        2.8600873994        2.6930244009
  C         5.1513443726        2.1461733329        3.2042933229
  C         6.3188688488        2.8601365958        3.5923438459
  C         7.5258793262        2.1461267962        3.8342229030
  C         8.7546324879        2.8601220334        3.9121395536
  C         9.9829733737        2.1462649994        3.8208849812
  C        11.1891985626        2.8599521844        3.5705501592
  C        12.3587129794        2.1462360354        3.1822912557
  C        13.4810038038        2.8596188857        2.6739220618
  C        14.5538207060        2.1460741949        2.0683634350
  C        15.5823615630        2.8594850501        1.3906894858
  C        16.5756936016        2.1460713883        0.6622462034
  C        17.5535301781        2.8592723211       -0.0868146313
  C        20.5757556889        2.1452496524       -2.2085975226
  C        21.6588902663        2.8579021385       -2.7961351326
  C        25.1661212265        2.1441231833       -3.9217810986
  C        26.3951665601        2.8562931241       -4.0212482281
  C        28.8391910679        2.8573797361       -3.7374974455
  C        27.6263267215        2.1442855162       -3.9561788357
  C        33.2433554765        2.8594920400       -1.5880866245
  C        30.0156864765        2.1450665080       -3.3692229646
  C        31.1427999589        2.8587488703       -2.8719089463
  C        32.2165969024        2.1457950496       -2.2681602731
  C        34.2338186025        2.1462945740       -0.8561512217
  C        19.5383380470        4.2954974781       -1.5437738811
  C        22.7874340782        2.1445616768       -3.2897461251
  C        19.5375302902        2.8587678943       -1.5457961823
  C        35.2050647956        2.8597571614       -0.0990327095
  C         0.9547708317        2.1463196515        0.6590116734
  C        23.9590024115        2.8566612061       -3.6714367264
  C        23.9590578127       12.8964530999       -3.6708595995
  C        25.1661956034       13.6085122095       -3.9209718474
  C        26.3950342617       12.8966401112       -4.0199579099
  C        27.6260671648       13.6086098475       -3.9553248362
  C        28.8390641143       12.8964662130       -3.7366508319
  C        30.0155042458       13.6088785002       -3.3688103634
  C        31.1429896659       12.8960457120       -2.8719661457
  C        32.2166295674       13.6090835130       -2.2681686912
  C        33.2439018046       12.8962795766       -1.5887363107
  C        34.2339423122       13.6094409151       -0.8563448977
  C        35.2054102779       12.8964103873       -0.0995455259
  C        36.1748037644       13.6095903309        0.6589342385
  C        37.1631674015       12.8964194830        1.3934095001
  C        38.1849806107       13.6098092024        2.0793704646
  C        39.2519666461       12.8963780943        2.6931286265
  C        40.3713304573       13.6099704843        3.2042877932
  C        39.2519804675       11.4600807599        2.6932424329
  C        37.1631842338       11.4598123078        1.3935137160
  C        35.2055398659       11.4597028538       -0.0995110837
  C        33.2439800000       11.4595789850       -1.5886857524
  C        31.1429755795       11.4595776173       -2.8715813042
  C        30.0156365974       10.7465696713       -3.3689784025
  C        28.8395736090       11.4604462243       -3.7370643422
  C        27.6267842251       10.7485746551       -3.9587679353
  C        26.3953819808       11.4612125764       -4.0226183893
  C        25.1661328162       10.7494476564       -3.9245745388
  C        23.9587929655       11.4605569752       -3.6713467000
  C        22.7883184453       10.7470755368       -3.2877421605
  C        38.1850141745       10.7463537176        2.0794665079
  C        36.1748672692       10.7462932612        0.6590284441
  C        34.2342032316       10.7462175707       -0.8563662585
  C        32.2167543042       10.7460287217       -2.2679792883
  C        38.1849903372        9.3098554577        2.0797755371
  C        37.1632771610        8.5964857070        1.3937441362
  C        36.1749446739        9.3096453785        0.6593050762
  C        35.2055100489        8.5964135588       -0.0990034407
  C        34.2343779455        9.3094833000       -0.8561342219
  C        33.2438890071        8.5961853756       -1.5879267025
  C        32.2169354733        9.3093284728       -2.2676757796
  C        31.1431446358        8.5958873868       -2.8713230714
  C        30.0165527533        9.3099503376       -3.3697643976
  C        28.8415128250        8.5968649555       -3.7436695962
  C        27.6294679561        9.3121187527       -3.9666656310
  C        26.3963819522        8.5991608603       -4.0444218000
  C        25.1646446448        9.3127488360       -3.9341539677
  C        23.9565897589        8.5979179967       -3.6790675640
  C        22.7872069792        9.3105465876       -3.2876228225
  C        21.6606449948        8.5957387457       -2.7909587830
  C        21.6604818353        7.1587330750       -2.7909325052
  C        22.7865102198        6.4432452219       -3.2890393282
  C        23.9553969959        7.1576959150       -3.6829711019
  C        25.1628037906        6.4409624246       -3.9498995430
  C        26.3972033155        7.1569261697       -4.0616168031
  C        27.6315031919        6.4422519572       -3.9791153937
  C        28.8425030193        7.1588555523       -3.7463230701
  C        30.0169796812        6.4447398276       -3.3709658202
  C        31.1431113012        7.1592618819       -2.8712517543
  C        32.2166393454        6.4457430639       -2.2671448917
  C        33.2436454275        7.1596353668       -1.5875277462
  C        34.2339952534        6.4462278703       -0.8555737159
  C        35.2052482508        7.1597901157       -0.0986415198
  C        36.1747936954        6.4463331701        0.6595028076
  C        37.1631961876        7.1598956784        1.3938201803
  C        36.1746368165        5.0096654305        0.6594568092
  C        35.2051535338        4.2964499370       -0.0988978314
  C        34.2333932047        5.0095061236       -0.8552760476
  C        33.2435218671        4.2961779420       -1.5879915269
  C        32.2161939709        5.0090793419       -2.2673223602
  C        31.1429667913        4.2953365690       -2.8719729611
  C        30.0160930768        5.0079469331       -3.3710084307
  C        28.8403161083        4.2936334976       -3.7405918873
  C        27.6279323651        5.0045733318       -3.9682106258
  C        26.3956082573        4.2918251839       -4.0296594626
  C        25.1649402039        5.0026513342       -3.9350623498
  C        23.9579657334        4.2927011539       -3.6751099576
  C        22.7875041300        5.0064938899       -3.2904530231
  C        21.6592317983        4.2944029510       -2.7947055457
  C        20.5777952218        5.0083006073       -2.2045310317
  C        20.5785172235        6.4450963861       -2.2017404303
 Na        25.9688065667        7.4055933341       -1.5467664088
