     193
 i =      157, E =     -1140.5776005768
  C        18.6644759708        2.2565044035       -0.8447436194
  C         6.2926904634       13.0051195245        3.2576768022
  C         7.5057292948       13.7186224659        3.4749954457
  C         8.7354841033       13.0047507181        3.5515620197
  C         9.9658554413       13.7183383999        3.4850608921
  C        11.1817739871       13.0046469228        3.2850043147
  C        12.3703116211       13.7182418115        2.9583463041
  C        13.5194536140       13.0048874120        2.5134850321
  C        14.6218623766       13.7185275375        1.9629638035
  C        15.6778375119       13.0051928081        1.3283233360
  C        16.6952093747       13.7189404146        0.6346112059
  C        17.6845447598       13.0057375112       -0.0985222031
  C        18.6648018812       13.7194653009       -0.8443925868
  C        19.6524867036       13.0062206294       -1.5798975208
  C        20.6664740876       13.7199588406       -2.2786626653
  C        21.7184646757       13.0067554662       -2.9197662924
  C        22.8161325759       13.7206808759       -3.4786351699
  C        21.7202987535       11.5699288588       -2.9194690265
  C        19.6536444634       11.5694026940       -1.5790392509
  C        17.6848904377       11.5689242517       -0.0980804977
  C        15.6778653811       11.5684704868        1.3284855250
  C        13.5195563965       11.5681718688        2.5138883401
  C        12.3706153176       10.8549075296        2.9590835301
  C        11.1819470815       11.5679793943        3.2853800564
  C         9.9659580505       10.8549579214        3.4854112573
  C         8.7355983940       11.5682917621        3.5516564240
  C         7.5058459803       10.8552084674        3.4745524233
  C         6.2928054575       11.5684954539        3.2575075353
  C         5.1125353648       10.8555049317        2.9026640019
  C        20.6693145548       10.8567020292       -2.2765760536
  C        18.6661164584       10.8562908300       -0.8433092571
  C        16.6955903662       10.8556951042        0.6349820569
  C        14.6220213341       10.8552933289        1.9633251562
  C        20.6702044164        9.4201282856       -2.2759035036
  C        19.6547454622        8.7065334316       -1.5780943678
  C        18.6663611879        9.4195362496       -0.8430082822
  C        17.6853084403        8.7059107747       -0.0977609829
  C        16.6957025475        9.4189729154        0.6351925779
  C        15.6780056200        8.7053136105        1.3286408365
  C        14.6220697104        9.4185261905        1.9634507987
  C        13.5196657537        8.7049154298        2.5141005043
  C        12.3705951914        9.4182249445        2.9592438154
  C        11.1819812608        8.7046374479        3.2856780724
  C         9.9660196918        9.4183116210        3.4854338834
  C         8.7356049030        8.7047943278        3.5517768564
  C         7.5059203943        9.4186391336        3.4744804840
  C         6.2928744107        8.7051895214        3.2573102643
  C         5.1126297985        9.4188946543        2.9025319463
  C         3.9763207096        8.7056169032        2.4255480608
  C         3.9763637716        7.2690633526        2.4258326893
  C         5.1124570707        6.5556600550        2.9030753411
  C         6.2928346864        7.2685870781        3.2575894308
  C         7.5057943011        6.5552775799        3.4749577685
  C         8.7355687072        7.2683540584        3.5518214557
  C         9.9658839468        6.5549970546        3.4853909534
  C        11.1819116224        7.2679855928        3.2854763604
  C        12.3705485829        6.5549889697        2.9589228931
  C        13.5195611619        7.2682204508        2.5139316325
  C        14.6220674204        6.5554157324        1.9634050180
  C        15.6779845872        7.2686430921        1.3287211730
  C        16.6956527470        6.5559304312        0.6351823251
  C        17.6850215307        7.2692150068       -0.0978700081
  C        18.6657750676        6.5566993876       -0.8435548672
  C        19.6539386646        7.2699904986       -1.5786796032
  C        18.6649992192        5.1198692278       -0.8441308775
  C        17.6844134950        4.4060568684       -0.0985200016
  C        16.6954858343        5.1191797119        0.6350935900
  C        15.6777936803        4.4054040450        1.3284295992
  C        14.6220249511        5.1186342745        1.9633919184
  C        13.5193609021        4.4049459921        2.5134019786
  C        12.3703405709        5.1183127225        2.9584995176
  C        11.1817867902        4.4046641440        3.2849455249
  C         9.9658925950        5.1183563854        3.4851110857
  C         8.7354801550        4.4048325687        3.5517489140
  C         7.5057309647        5.1186884525        3.4751793745
  C         6.2926458443        4.4051865590        3.2581800509
  C         5.1124203428        5.1190209949        2.9033719410
  C         3.9760273935        4.4056989191        2.4266241921
  C         2.8904811690        5.1195099825        1.8444755321
  C         2.8904928699        6.5562271175        1.8441647354
  C         1.8509821546        4.4063846087        1.1828977217
  C         1.8508550543        2.9694197380        1.1832543901
  C         2.8901357172        2.2561213640        1.8450757513
  C         3.9760593067        2.9690613493        2.4266680883
  C         5.1122208861        2.2555761002        2.9036952496
  C         6.2925972821        2.9685438468        3.2583801617
  C         7.5057136079        2.2552180249        3.4751151784
  C         8.7354775711        2.9683629294        3.5518295373
  C         9.9657689755        2.2549805353        3.4849219542
  C        11.1817398586        2.9680019313        3.2847270410
  C        12.3703275209        2.2549346456        2.9582120108
  C        13.5193660074        2.9682189278        2.5133532909
  C        14.6219316534        2.2553516145        1.9630668845
  C        15.6777826790        2.9686588758        1.3283660734
  C        16.6952469432        2.2557868116        0.6346835319
  C        17.6841556253        2.9691841985       -0.0987287998
  C        20.6658242745        2.2569608480       -2.2791132262
  C        21.7172052405        2.9702944032       -2.9202957428
  C        25.1561753451        2.2577268800       -4.2326837918
  C        26.3800918952        2.9698628917       -4.3753931474
  C        28.8215831928        2.9698870577       -4.0995198416
  C        27.6111570187        2.2577272350       -4.3282336729
  C        33.1459096305        2.9698793162       -1.7975493518
  C        29.9853618733        2.2574153358       -3.6964671883
  C        31.0924605872        2.9701398140       -3.1574312557
  C        32.1420388001        2.2571747455       -2.5124509506
  C        34.1224572006        2.2568803579       -1.0463534054
  C        19.6519888098        4.4067590444       -1.5805032203
  C        22.8155313830        2.2574078953       -3.4783683994
  C        19.6514500998        2.9698300302       -1.5808082259
  C        35.0915413348        2.9696796520       -0.2848227628
  C         0.8487137992        2.2566776749        0.4657305479
  C        23.9625673861        2.9702994458       -3.9272234598
  C        23.9631200064       13.0081737957       -3.9302810191
  C        25.1563429097       13.7221239336       -4.2358307677
  C        26.3805192960       13.0102471938       -4.3851214770
  C        27.6117625679       13.7229696968       -4.3335614434
  C        28.8231682674       13.0096885668       -4.1090794316
  C        29.9860755175       13.7216100038       -3.7001589195
  C        31.0935420646       13.0076207476       -3.1624043255
  C        32.1423482218       13.7201321698       -2.5142395405
  C        33.1461302436       13.0065582915       -1.7993267731
  C        34.1223699650       13.7196194701       -1.0468839751
  C        35.0913498694       13.0062849073       -0.2852009589
  C        36.0684779288       13.7194846780        0.4658369006
  C        37.0705342334       13.0060329842        1.1834026746
  C        38.1101317681       13.7192943147        1.8449826201
  C        39.1959820933       13.0054728748        2.4263992328
  C        40.3322840922       13.7188902237        2.9034051136
  C        39.1961313288       11.5688651095        2.4261539078
  C        37.0705455010       11.5691254980        1.1830547622
  C        35.0907165148       11.5692286014       -0.2853563597
  C        33.1450759408       11.5694372667       -1.8002754898
  C        31.0945917078       11.5710087663       -3.1697894458
  C        29.9926264193       10.8604864514       -3.7283480119
  C        28.8272004666       11.5741792835       -4.1318730883
  C        27.6169896975       10.8650783983       -4.3899237720
  C        26.3805608858       11.5749746156       -4.4102824758
  C        25.1545376019       10.8615089279       -4.2678800647
  C        23.9632927761       11.5716891021       -3.9378554331
  C        22.8181967146       10.8578229873       -3.4823988369
  C        38.1101837177       10.8559858413        1.8444349841
  C        36.0679800740       10.8564850178        0.4655906529
  C        34.1209074916       10.8566025927       -1.0471947272
  C        32.1418726375       10.8574526863       -2.5194835431
  C        38.1103769575        9.4192940167        1.8440367335
  C        37.0707381263        8.7062145428        1.1823727813
  C        36.0680341629        9.4195707371        0.4652740524
  C        35.0901677889        8.7066093641       -0.2853426022
  C        34.1201769310        9.4197493225       -1.0469986240
  C        33.1436067048        8.7069346645       -1.8003151829
  C        32.1411015349        9.4204267604       -2.5202486625
  C        31.0963715424        8.7076493405       -3.1786499192
  C        29.9973049667        9.4231980922       -3.7414889148
  C        28.8386360769        8.7106814326       -4.1820211017
  C        27.6209227908        9.4272151402       -4.4318969261
  C        26.3776410303        8.7109855153       -4.4728439759
  C        25.1511853723        9.4238281473       -4.2874112749
  C        23.9622947979        8.7081301474       -3.9497295303
  C        22.8190680477        9.4210145425       -3.4831894054
  C        21.7222816897        8.7071222096       -2.9184756087
  C        21.7210471455        7.2706025387       -2.9189564191
  C        22.8177833747        6.5576306422       -3.4820622861
  C        23.9619473562        7.2702641216       -3.9455789251
  C        25.1530379083        6.5554821983       -4.2665406315
  C        26.3784468578        7.2676467067       -4.4457615949
  C        27.6161814943        6.5531342956       -4.3863777510
  C        28.8336103040        7.2678897927       -4.1593070422
  C        29.9924103047        6.5557335965       -3.7246899002
  C        31.0959485038        7.2701113083       -3.1749678794
  C        32.1409678263        6.5575389863       -2.5174197523
  C        33.1439708887        7.2701630891       -1.7994332649
  C        34.1204833671        6.5573455683       -1.0462241070
  C        35.0903841400        7.2698267223       -0.2850017046
  C        36.0683520381        6.5569395227        0.4653490736
  C        37.0709847204        7.2694448602        1.1824236907
  C        36.0685488107        5.1199495488        0.4656420008
  C        35.0911961194        4.4068482303       -0.2848740597
  C        34.1212732717        5.1203263742       -1.0459176150
  C        33.1449489525        4.4071000209       -1.7975748084
  C        32.1412200180        5.1204133813       -2.5143762376
  C        31.0925684650        4.4067151975       -3.1605885505
  C        29.9879434965        5.1190451904       -3.7096198146
  C        28.8232215347        4.4051945952       -4.1098652116
  C        27.6131674074        5.1165833746       -4.3522616763
  C        26.3800887497        4.4049822865       -4.3869861674
  C        25.1555269165        5.1187037375       -4.2474038518
  C        23.9627638560        4.4066702389       -3.9306682515
  C        22.8165561999        5.1207127666       -3.4802244137
  C        21.7181294880        4.4072276842       -2.9202634022
  C        20.6670549757        5.1206406660       -2.2782788805
  C        20.6686158960        6.5574050279       -2.2771815765
 Na        27.2837141565        8.3609286348       -2.1083885156
