     193
 i =       59, E =     -1140.4804263243
  C         0.0003110304        0.0002751063       -0.0946174613
  C        16.1209000990        2.8643614323       -2.1713264149
  C        15.4428690984        2.1506542099       -1.1438670805
  C        16.8746100554        2.1510747597       -3.1451608265
  C        17.7338723333        2.8648189907       -4.0276562899
  C        18.7089197677        2.1505964467       -4.7790548168
  C        19.7986413249        2.8646748385       -5.3534102877
  C        20.9762677501        2.1502261611       -5.7154045612
  C        23.4272932622        2.1500102575       -5.7148207693
  C        22.2018124352        2.8645291963       -5.8378095041
  C        26.6724693907        2.8639773216       -4.0304030360
  C        24.6050555535        2.8642531802       -5.3528958980
  C        25.6954570886        2.1499648259       -4.7798180967
  C        28.9626168861        2.1502353184       -1.1470099998
  C        27.5329724424        2.1501507119       -3.1493245221
  C        28.2867299038        2.8637504825       -2.1754734770
  C        28.9625185075        0.7136886354       -1.1469424678
  C        17.7328307904       11.4649112753       -4.0281505761
  C        16.1189876147       11.4654619245       -2.1725940586
  C        14.7979471861       11.4662418576       -0.0952638355
  C        13.4694083590       11.4662288319        1.9799398583
  C        11.8545613356       11.4663515640        3.8387708151
  C        10.8812718656       10.7527234737        4.5936298584
  C         9.7948974638       11.4659753213        5.1730873852
  C         8.6181592140       10.7513476434        5.5381819455
  C         7.3930194392       11.4652684786        5.6611864069
  C         6.1678636530       10.7504485941        5.5351596955
  C         4.9915853295       11.4645694432        5.1692649970
  C         3.9027243245       10.7502589586        4.5933311144
  C        16.8735997320       10.7516268168       -3.1459143102
  C        15.4396528597       10.7532248331       -1.1459577321
  C        14.1506649387       10.7546139868        0.9526121311
  C        12.7097591031       10.7544810200        2.9514135274
  C        16.8743023777        9.3152048587       -3.1462090241
  C        16.1194426445        8.6022243778       -2.1733719901
  C        15.4394550815        9.3168847317       -1.1475869532
  C        14.7916302383        8.6047211751       -0.1010397287
  C        14.1446405195        9.3188220022        0.9470696412
  C        13.4529730233        8.6091590113        1.9686858607
  C        12.7025375828        9.3189735421        2.9476015147
  C        11.8475088086        8.6042422797        3.8349455968
  C        10.8797182958        9.3172943150        4.5951388216
  C         9.7939250080        8.6017524836        5.1754859562
  C         8.6176034146        9.3157415457        5.5401410900
  C         7.3924170087        8.6006468730        5.6629536872
  C         6.1674118426        9.3148101125        5.5356611996
  C         4.9912423997        8.6003421432        5.1692667906
  C         3.9024753657        9.3143881516        4.5933044018
  C         2.9269605548        8.6003013981        3.8420474667
  C         2.9267272832        7.1642466130        3.8421300709
  C         3.9023249945        6.4503084288        4.5932240320
  C         4.9910324698        7.1646331550        5.1692982589
  C         6.1671464201        6.4503528050        5.5354750475
  C         7.3919880182        7.1651456535        5.6632621876
  C         8.6170401993        6.4505897408        5.5408576034
  C         9.7933352433        7.1660119958        5.1770762378
  C        10.8782330126        6.4513149389        4.5962459802
  C        11.8449800879        7.1685513673        3.8378352575
  C        12.6927444680        6.4533557125        2.9441952370
  C        13.4422536085        7.1709424674        1.9612210475
  C        14.1370217781        6.4537492779        0.9382422955
  C        14.7924259256        7.1682282352       -0.1046273094
  C        15.4402541305        6.4518696008       -1.1489971529
  C        16.1206639999        7.1656404845       -2.1739391037
  C        15.4413649964        5.0146422017       -1.1470809543
  C        14.8006239182        4.2993246176       -0.0972943103
  C        14.1478766959        5.0126810504        0.9475036693
  C        13.4686991516        4.2983899101        1.9798289625
  C        12.7042051521        5.0128187932        2.9513476337
  C        11.8533251610        4.2990337153        3.8428839722
  C        10.8799468107        5.0149260036        4.5955287750
  C         9.7942600865        4.3001853313        5.1746513890
  C         8.6174298837        5.0150494031        5.5389365942
  C         7.3924720364        4.3003679570        5.6609533610
  C         6.1673680112        5.0148358268        5.5348383255
  C         4.9912305370        4.3004057206        5.1688387768
  C         3.9022766367        5.0144474947        4.5932134186
  C         2.9268096798        4.3003144213        3.8420255438
  C         2.0673656574        5.0139909403        2.9599898251
  C         2.0673867421        6.4503851232        2.9600047155
  C         1.3139354344        4.3003682107        1.9860092228
  C         1.3141782067        2.8638720906        1.9858812237
  C         2.0677610506        2.1503298308        2.9598146153
  C         2.9270177656        2.8642351736        3.8419760676
  C         3.9025630202        2.1502721674        4.5931814630
  C         4.9914492437        2.8647009876        5.1686840770
  C         6.1679665617        2.1504963343        5.5340866862
  C         7.3930644354        2.8649651918        5.6596814432
  C         8.6183971267        2.1504742330        5.5366168496
  C         9.7952259266        2.8645385191        5.1725019840
  C        10.8835391707        2.1501807326        4.5955166942
  C        11.8575046091        2.8633031257        3.8418335295
  C        12.7182838471        2.1500212516        2.9587411284
  C        13.4765610831        2.8608952531        1.9854830055
  C        14.1584799048        2.1501499583        0.9580352535
  C        14.8013433220        2.8630976872       -0.0931313089
  C        14.1571383502        0.7140603776        0.9576356518
  C        13.4737392048        0.0020658434        1.9832009145
  C        12.7175079887        0.7140468807        2.9572457383
  C        11.8570508210        0.0016848182        3.8401595030
  C        10.8833101628        0.7147914022        4.5942534679
  C         9.7954116230        0.0012388628        5.1721334639
  C         8.6184717277        0.7150590241        5.5363991230
  C         7.3932837610        0.0007020900        5.6603051718
  C         6.1681174970        0.7148987443        5.5342926971
  C         4.9917016129        0.0003766577        5.1691601311
  C         2.9273533857        0.0002768897        3.8419418730
  C         3.9028029950        0.7143580485        4.5932478752
  C         2.0679623762        0.7139417865        2.9597811547
  C         1.3143858322        0.0003376128        1.9858677437
  C         0.6382528898        0.7137303791        0.9575638090
  C         0.6382009256        2.1502681393        0.9575404145
  C        27.5329132156        0.7137679256       -3.1493000131
  C        29.6002136667        2.8638231142       -0.0946018668
  C        26.6724326181        0.0000707346       -4.0304167299
  C        16.1213135125        4.3008919158       -2.1725021080
  C        28.2867224339        0.0002397980       -2.1754733535
  C        24.6049362351        0.0000159422       -5.3528085723
  C        25.6954302151        0.7140530442       -4.7798435855
  C        23.4271596570        0.7143230833       -5.7146401810
  C        22.2015980356        0.0000621212       -5.8374331584
  C        20.9761239715        0.7145408735       -5.7149552014
  C        19.7983097428        0.0004568808       -5.3530231305
  C        17.7328819230        0.0010003712       -4.0278989509
  C        18.7087080933        0.7147296348       -4.7788228447
  C        16.1192633720        0.0016483096       -2.1719734848
  C        15.4417659642        0.7144438149       -1.1439905297
  C        16.8740121901        0.7147386468       -3.1452891488
  C        32.5272612914       11.4641852530        3.8419988427
  C        30.9142724554       11.4638788751        1.9859375248
  C        29.6002461357       11.4638440544       -0.0945872779
  C        28.2867540134       11.4637722012       -2.1754955363
  C        26.6724555105       11.4639959779       -4.0304188020
  C        25.6954376508       10.7500131149       -4.7798432458
  C        24.6049246651       11.4642514192       -5.3527397894
  C        23.4271571845       10.7500248604       -5.7146811587
  C        22.2016295878       11.4645157463       -5.8374345388
  C        20.9761064996       10.7502417055       -5.7151708377
  C        19.7983439829       11.4646711289       -5.3531603366
  C        18.7086242702       10.7506996909       -4.7791267829
  C        31.6678694805       10.7503393210        2.9598744486
  C        30.2382359862       10.7503392098        0.9575846706
  C        28.9626039485       10.7503007461       -1.1469919876
  C        27.5329632168       10.7502055425       -3.1493321510
  C        31.6675528869        9.3139755179        2.9599766928
  C        30.9140387500        8.6003968746        1.9860009987
  C        30.2380443108        9.3138143418        0.9576519202
  C        29.6002548135        8.6003343449       -0.0946031372
  C        28.9626101672        9.3137656399       -1.1469975827
  C        28.2868879861        8.6003028122       -2.1755720109
  C        27.5330615202        9.3138329619       -3.1493798910
  C        26.6725482212        8.6001266144       -4.0304579866
  C        25.6954856378        9.3141163013       -4.7797847612
  C        24.6050791082        8.6000723347       -5.3528830100
  C        23.4273188844        9.3143642917       -5.7147397130
  C        22.2018284092        8.6001152300       -5.8379233201
  C        20.9763001975        9.3145924123       -5.7156653356
  C        19.7985591108        8.6004929699       -5.3538903230
  C        18.7088418444        9.3148544958       -4.7796916877
  C        17.7337051071        8.6009950527       -4.0283708520
  C        17.7342003662        7.1649809227       -4.0287547228
  C        18.7093246257        6.4505829166       -4.7800813447
  C        19.7987567204        7.1647779252       -5.3543589919
  C        20.9764382976        6.4502518518       -5.7162072976
  C        22.2019345856        7.1645822361       -5.8381977703
  C        23.4273943517        6.4500652147       -5.7149656318
  C        24.6050680462        7.1642986618       -5.3528093477
  C        25.6955378623        6.4500322279       -4.7798729569
  C        26.6725747860        7.1640270488       -4.0304849255
  C        27.5331223261        6.4502191487       -3.1494563548
  C        28.2868344820        7.1638069562       -2.1755688878
  C        28.9626887806        6.4503101257       -1.1470894802
  C        29.6002351614        7.1638768463       -0.0946450834
  C        30.2379852083        6.4503524486        0.9576382088
  C        30.9138242468        7.1639201944        1.9860859013
  C        30.2380543110        5.0137912684        0.9575907309
  C        29.6002698302        4.3002961845       -0.0946537380
  C        28.9625779829        5.0137371740       -1.1470152208
  C        28.2868688364        4.3002587588       -2.1755896380
  C        27.5330376284        5.0138087138       -3.1493884759
  C        26.6725680366        4.3000917009       -4.0305043404
  C        25.6955239886        5.0141039237       -4.7798488008
  C        24.6050750375        4.3000491827       -5.3528705587
  C        23.4274212836        5.0143692633       -5.7150191095
  C        22.2019218510        4.3000773770       -5.8381637365
  C        20.9764594670        5.0145842116       -5.7159951813
  C        19.7987186951        4.3003996025       -5.3540991571
  C        18.7093596371        5.0148358041       -4.7797654505
  C        17.7341920947        4.3008625152       -4.0282275450
  C        16.8756104935        5.0149039871       -3.1458052869
  C        16.8756171876        6.4512252388       -3.1463010687
  C        14.7995760916        0.0020505065       -0.0935241295
 Na        15.4012832855        6.1631911435        3.3281706733
