     225
 i =       94, E =     -1323.2606294231
  C         8.6746595025       15.0078958505       -0.0361032418
  C         9.9026988483       15.7277504985       -0.0701409163
  C        11.1281015954       15.0104840775       -0.1808990776
  C        12.3572879073       15.7299141002       -0.1666510071
  C        13.5845897220       15.0113438891       -0.2187849636
  C        14.8134721198       15.7291003234       -0.1488842574
  C        16.0401853413       15.0096260614       -0.1274330184
  C        17.2687297851       15.7285405655       -0.0594357215
  C        18.4950230561       15.0094999467       -0.0059674989
  C        19.7243528944       15.7292474744        0.0314224525
  C        20.9513954024       15.0099648389        0.0795763328
  C        22.1809719017       15.7295462436        0.0916711264
  C        23.4090551431       15.0095472877        0.1100816376
  C        24.6386570475       15.7285391848        0.1052531815
  C        25.8670014656       15.0082353972        0.0793500396
  C        27.0961495054       15.7269909258        0.0520697939
  C        25.8594076639       13.5823498066        0.0513826587
  C        23.4009348676       13.5835456818        0.1120649416
  C        20.9422042277       13.5840181657        0.0940151336
  C        18.4851194167       13.5834587837       -0.0038386624
  C        16.0319684455       13.5842314312       -0.1796800877
  C        14.8062856040       12.8679832180       -0.3217361046
  C        13.5777761170       13.5888710250       -0.3401453357
  C        12.3463503911       12.8737914801       -0.4319718234
  C        11.1182036491       13.5882880239       -0.3084468999
  C         9.8884902646       12.8673892067       -0.2768437358
  C         8.6658793443       13.5831212841       -0.1129085739
  C         7.4377320634       12.8634366649       -0.0480258806
  C        24.6294387860       12.8636432984        0.0855272463
  C        22.1705281978       12.8644090033        0.1127158963
  C        19.7120675371       12.8645257470        0.0590155351
  C        17.2572799347       12.8644159344       -0.0977206572
  C        24.6200276849       11.4378951779        0.0658422569
  C        23.3894422411       10.7192738581        0.0933483695
  C        22.1606781560       11.4384866700        0.1100684122
  C        20.9300084176       10.7197250512        0.0989206980
  C        19.7014821020       11.4386629664        0.0625431003
  C        18.4723293085       10.7198842400       -0.0077293141
  C        17.2472005482       11.4383402505       -0.1157191479
  C        16.0236923291       10.7198542500       -0.2670373207
  C        14.8018861680       11.4420136090       -0.4071736103
  C        13.5763056848       10.7241811267       -0.5782458850
  C        12.3372654669       11.4500539908       -0.5832122541
  C        11.0974783119       10.7251813880       -0.5653049182
  C         9.8741179693       11.4427697083       -0.3823015930
  C         8.6493344422       10.7206580299       -0.2593529383
  C         7.4274764199       11.4380659885       -0.0989947518
  C         6.1991934729       10.7192413863       -0.0142754137
  C         6.1897974760        9.2943174819       -0.0377101962
  C         7.4150462143        8.5758578134       -0.1394728328
  C         8.6404385996        9.2942069782       -0.2736105199
  C         9.8635187284        8.5717273799       -0.3950350145
  C        11.0899789408        9.2883679755       -0.5625264407
  C        12.3277603849        8.5619938972       -0.5634081875
  C        13.5679163328        9.2864870830       -0.5635908823
  C        14.7906140902        8.5698282276       -0.3723669366
  C        16.0145323771        9.2931427821       -0.2497226966
  C        17.2359789483        8.5757801577       -0.0850244424
  C        18.4635471065        9.2948075753        0.0025682866
  C        19.6911449315        8.5757628456        0.0725871778
  C        20.9213962686        9.2944818331        0.0968624060
  C        22.1501416692        8.5752378214        0.0922333033
  C        23.3805750474        9.2941099210        0.0767770497
  C        22.1402338433        7.1494521409        0.0763849062
  C        20.9103328385        6.4300723703        0.0860572449
  C        19.6819772843        7.1499647606        0.0804325354
  C        18.4522793936        6.4311672542        0.0558066257
  C        17.2256891414        7.1504282735       -0.0332944932
  C        15.9975791310        6.4306302089       -0.0878558339
  C        14.7751127326        7.1461724288       -0.2513814078
  C        13.5451590122        6.4255711626       -0.2669373575
  C        12.3178990486        7.1401660932       -0.3942126862
  C        11.0865355216        6.4257452385       -0.2994601013
  C         9.8584462295        7.1465386988       -0.3023964403
  C         8.6310759154        6.4301135343       -0.1806473923
  C         7.4049669208        7.1499724830       -0.1244601477
  C         6.1761359429        6.4308914410       -0.0528231039
  C         4.9494838257        7.1497617347        0.0037321006
  C         4.9602688360        8.5753630958        0.0224422179
  C         3.7196715146        6.4302243085        0.0358824555
  C         3.7102472779        5.0046774656        0.0086827731
  C         4.9370970349        4.2856836202       -0.0357386149
  C         6.1665379212        5.0051415367       -0.0574030946
  C         7.3933428070        4.2860492946       -0.0826043828
  C         8.6226610398        5.0050848245       -0.1233886548
  C         9.8494642907        4.2858057279       -0.1125959325
  C        11.0787135094        5.0040734614       -0.1684547397
  C        12.3052168548        4.2856746225       -0.0982899090
  C        13.5343602486        5.0049460508       -0.1200162367
  C        14.7598263914        4.2870070507       -0.0141493721
  C        15.9883610222        5.0063634934       -0.0018611182
  C        17.2154779881        4.2865708996        0.0694844370
  C        18.4445649762        5.0053229769        0.0790652424
  C        19.6728028471        4.2849913283        0.0818493161
  C        20.9018749625        5.0043059447        0.0703890388
  C        19.6646028896        2.8585625881        0.0616097651
  C        18.4356308607        2.1390798812        0.0796074988
  C        17.2076129042        2.8601082176        0.0924538517
  C        15.9783460649        2.1408385872        0.0943537596
  C        14.7508808674        2.8616283724        0.0565438220
  C        13.5218305117        2.1414898609        0.0540489338
  C        12.2954853906        2.8613874832       -0.0068447971
  C        11.0660746785        2.1409722978       -0.0059785432
  C         9.8398413313        2.8603526086       -0.0545776384
  C         8.6102569983        2.1404309029       -0.0619670882
  C         6.1541865435        2.1403565332       -0.0974756340
  C         7.3836931638        2.8599799842       -0.0795099869
  C         4.9275784461        2.8599615631       -0.0739413975
  C         3.6982097402        2.1400239875       -0.0826384549
  C         2.4720070200        2.8590949377       -0.0173867889
  C         2.4811709004        4.2848853186        0.0264007022
  C         1.2433538742        2.1387291343       -0.0009555923
  C        11.2321021121       16.3048936021        3.4890223364
  C        12.4613370311       17.0244422132        3.4683380136
  C        13.6882285793       16.3046852721        3.4805428930
  C        14.9176147299       17.0243373594        3.4587333555
  C        16.1443582413       16.3048175480        3.4715791069
  C        17.3738160951       17.0247075644        3.4721404103
  C        18.6003601142       16.3052491898        3.4978730202
  C        19.8295118192       17.0247600054        3.5208508952
  C        21.0561979362       16.3052692142        3.5428699202
  C        22.2853720127       17.0248227548        3.5536874918
  C        23.5122797247       16.3052957998        3.5543894496
  C        24.7412594128       17.0250517339        3.5451998815
  C        25.9682153192       16.3055355313        3.5310019426
  C        27.1970723476       17.0250314870        3.5081064297
  C        28.4241182492       16.3052502324        3.4984758803
  C        29.6530663111       17.0247888139        3.4788912216
  C        28.4142588233       14.8796920807        3.5275784090
  C        25.9582474262       14.8799032603        3.5371323691
  C        23.5023808001       14.8796424563        3.5541226938
  C        21.0465310855       14.8795846481        3.5467966192
  C        18.5907001722       14.8794875676        3.5149854686
  C        17.3614831490       14.1601482959        3.5257887702
  C        16.1345633365       14.8792258857        3.5102934094
  C        14.9056295893       14.1604875605        3.5629538160
  C        13.6787188871       14.8797152464        3.5442660006
  C        12.4495051129       14.1619386889        3.6001956414
  C        11.2223147970       14.8799010939        3.5486789682
  C         9.9933841796       14.1606688577        3.5683107027
  C        27.1854911730       14.1604552449        3.5393561209
  C        24.7295173280       14.1603740661        3.5473778561
  C        22.2735051641       14.1602038876        3.5546964675
  C        19.8174944236       14.1602733287        3.5382299888
  C        27.1763523064       12.7352881740        3.5575780609
  C        25.9476740628       12.0157105323        3.5402762374
  C        24.7205354733       12.7351694744        3.5399423199
  C        23.4917364302       12.0156144156        3.5362655478
  C        22.2647572458       12.7350227158        3.5479808031
  C        21.0358271042       12.0155722070        3.5449225238
  C        19.8089326778       12.7350089290        3.5460781803
  C        18.5798877307       12.0155847036        3.5548165603
  C        17.3531897405       12.7351448885        3.5621574982
  C        16.1247616312       12.0162595215        3.6268096149
  C        14.8985270071       12.7368234880        3.6490724181
  C        13.6702192298       12.0210125755        3.7603258054
  C        12.4408202820       12.7401846897        3.7229422308
  C        11.2090852113       12.0208430209        3.7588533771
  C         9.9830387177       12.7367622025        3.6463182087
  C         8.7547846590       12.0161143427        3.6168854381
  C         8.7435744407       10.5903386967        3.6418323938
  C         9.9670758787        9.8698315181        3.7510249961
  C        11.1949113288       10.5932401464        3.8558094200
  C        12.4284265918        9.8696036855        3.9355636176
  C        13.6633012794       10.5935378751        3.8571569826
  C        14.8894501149        9.8704029358        3.7629328403
  C        16.1155699766       10.5906036780        3.6606835218
  C        17.3411381132        9.8704504577        3.5971201239
  C        18.5698405398       10.5900155771        3.5595936236
  C        19.7967387837        9.8705893599        3.5374000038
  C        21.0257945673       10.5900545631        3.5318831060
  C        22.2527581284        9.8706582242        3.5106073190
  C        23.4817006572       10.5902102207        3.5138768692
  C        24.7089199243        9.8708330419        3.5014184496
  C        25.9377338374       10.5902256914        3.5280048488
  C        24.7002665408        8.4457162777        3.4796600779
  C        23.4711899085        7.7264536987        3.4716768976
  C        22.2438900520        8.4455863919        3.4893446469
  C        21.0148700250        7.7262865517        3.4957652498
  C        19.7878208938        8.4455123500        3.5237433502
  C        18.5589285577        7.7261935470        3.5421223743
  C        17.3321173797        8.4452606577        3.5882500817
  C        16.1039121140        7.7255272929        3.6330930775
  C        14.8786161662        8.4435931353        3.7333426029
  C        13.6491766942        7.7221334801        3.7642086766
  C        12.4192211810        8.4388439611        3.8515095886
  C        11.1878331362        7.7217342735        3.7531171026
  C         9.9603278282        8.4428875160        3.7117316366
  C         8.7343097319        7.7255028047        3.5905570614
  C         7.5081215898        8.4453536875        3.5426551519
  C         7.5165341956        9.8704789887        3.5640555406
  C         6.2796812699        7.7265010882        3.4862031544
  C         6.2699756822        6.3007983349        3.4661268604
  C         7.4969977476        5.5811890125        3.4786105357
  C         8.7256794456        6.3002766246        3.5401294511
  C         9.9522150961        5.5806120014        3.5642119540
  C        11.1804807328        6.2982214294        3.6504955221
  C        12.4079394152        5.5794652239        3.6348321919
  C        13.6373719419        6.2984295296        3.6677107884
  C        14.8643599834        5.5804686954        3.6062233893
  C        16.0932417114        6.3002219789        3.5935901493
  C        17.3200310637        5.5810212404        3.5466663650
  C        18.5489763077        6.3006841853        3.5270565534
  C        19.7759137936        5.5811289861        3.4951309972
  C        21.0050196144        6.3007797692        3.4824293409
  C        22.2320790921        5.5810799165        3.4642253374
  C        23.4613533462        6.3007849456        3.4592752118
  C        22.2228688563        4.1554230830        3.4591441086
  C        20.9938327368        3.4361328807        3.4696921980
  C        19.7666395388        4.1555775097        3.4866191331
  C        18.5378620212        3.4362616581        3.5061017833
  C        17.3108128956        4.1555537079        3.5329410460
  C        16.0821515051        3.4362003762        3.5486880201
  C        14.8550248600        4.1552079187        3.5698760578
  C        13.6262042261        3.4359908782        3.5646803677
  C        12.3990210052        4.1548109100        3.5727784603
  C        11.1701588901        3.4360322831        3.5347666500
  C         8.7146280518        3.4362989433        3.4738926457
  C         9.9434438938        4.1553393453        3.5167221073
  C         7.4876602850        4.1554177723        3.4591428230
  C         6.2584093289        3.4359413817        3.4468594722
  C         5.0312755014        4.1553214797        3.4462957958
  C         5.0405336774        5.5811700715        3.4516828658
  C         3.8020339861        3.4358593779        3.4522362975
 Na        12.3735942166       10.0334728785        1.5477017666
