     225
 i =        7, E =     -1317.0835564158
  C         8.5985600000       14.9694200000        0.0497600000
  C         9.8261400000       15.6562900000        0.0582200000
  C        11.0528800000       14.9690000000        0.0546700000
  C        12.2831100000       15.6552600000        0.0447200000
  C        13.5056200000       14.9665400000        0.0169500000
  C        14.7397200000       15.6531600000       -0.0141800000
  C        15.9525700000       14.9605600000       -0.0503500000
  C        17.1950400000       15.6488200000       -0.0678900000
  C        18.3921800000       14.9670400000       -0.1096300000
  C        19.6511500000       15.7559300000       -0.1021800000
  C        20.9073500000       14.9665700000       -0.1331200000
  C        22.1055100000       15.6488500000       -0.1206300000
  C        23.3473600000       14.9612300000       -0.0984000000
  C        24.5604900000       15.6536000000       -0.0509000000
  C        25.7944600000       14.9676800000       -0.0107500000
  C        27.0172600000       15.6562200000        0.0323700000
  C        25.7894300000       13.5173500000       -0.0171500000
  C        23.3368500000       13.5160100000       -0.1041100000
  C        20.8797400000       13.5256500000       -0.1444200000
  C        18.4176400000       13.5256500000       -0.1306300000
  C        15.9612700000       13.5151700000       -0.0663600000
  C        14.7321500000       12.8021600000       -0.0344400000
  C        13.5088200000       13.5162900000        0.0088700000
  C        12.2781700000       12.8034300000        0.0341700000
  C        11.0530800000       13.5169200000        0.0518200000
  C         9.8240300000       12.8039400000        0.0537500000
  C         8.5963800000       13.5172700000        0.0463400000
  C         7.3701500000       12.8039700000        0.0213400000
  C        24.5648100000       12.8035200000       -0.0625700000
  C        22.1059400000       12.8073900000       -0.1343800000
  C        19.6479500000       12.8101600000       -0.1464500000
  C        17.1904900000       12.8068200000       -0.1097200000
  C        24.5610800000       11.3660200000       -0.0651200000
  C        23.3306400000       10.6526700000       -0.1041500000
  C        22.1028800000       11.3677400000       -0.1322100000
  C        20.8746200000       10.6542500000       -0.1369500000
  C        19.6461300000       11.3744000000       -0.1437900000
  C        18.4166700000       10.6538600000       -0.1300300000
  C        17.1893500000       11.3668400000       -0.1129200000
  C        15.9606700000       10.6505900000       -0.0779900000
  C        14.7316100000       11.3642900000       -0.0432200000
  C        13.5049800000       10.6496000000       -0.0127900000
  C        12.2767300000       11.3660600000        0.0248400000
  C        11.0496400000       10.6510100000        0.0374900000
  C         9.8220300000       11.3670000000        0.0477600000
  C         8.5931500000       10.6511900000        0.0355700000
  C         7.3673300000       11.3666200000        0.0166100000
  C         6.1376400000       10.6508000000       -0.0254200000
  C         6.1370600000        9.2160200000       -0.0278100000
  C         7.3644200000        8.5002400000       -0.0018800000
  C         8.5921900000        9.2153600000        0.0175000000
  C         9.8200300000        8.4999300000        0.0013900000
  C        11.0486900000        9.2153000000        0.0174900000
  C        12.2755300000        8.4998300000       -0.0016100000
  C        13.5043500000        9.2150600000       -0.0205100000
  C        14.7314800000        8.5001500000       -0.0477100000
  C        15.9597600000        9.2162300000       -0.0743900000
  C        17.1881500000        8.5005300000       -0.0914100000
  C        18.4160000000        9.2177400000       -0.1103500000
  C        19.6441400000        8.5004800000       -0.0936400000
  C        20.8735600000        9.2181200000       -0.1124900000
  C        22.1005700000        8.5013700000       -0.0927300000
  C        23.3326900000        9.2198600000       -0.0919700000
  C        22.0988400000        7.0660500000       -0.0625200000
  C        20.8712300000        6.3509900000       -0.0504900000
  C        19.6431300000        7.0667700000       -0.0629600000
  C        18.4139500000        6.3505400000       -0.0531900000
  C        17.1875300000        7.0650600000       -0.0647000000
  C        15.9578400000        6.3493200000       -0.0525200000
  C        14.7306500000        7.0640000000       -0.0477700000
  C        13.5021200000        6.3487500000       -0.0417400000
  C        12.2742800000        7.0640200000       -0.0283000000
  C        11.0462900000        6.3490400000       -0.0358700000
  C         9.8188900000        7.0644100000       -0.0266000000
  C         8.5902800000        6.3492600000       -0.0357000000
  C         7.3635200000        7.0644600000       -0.0281200000
  C         6.1344400000        6.3493400000       -0.0416200000
  C         4.9072600000        7.0649100000       -0.0495300000
  C         4.9097400000        8.5014900000       -0.0567500000
  C         3.6790700000        6.3500500000       -0.0501800000
  C         3.6769400000        4.9110000000       -0.0349500000
  C         4.9038100000        4.1984400000       -0.0361700000
  C         6.1323100000        4.9101000000       -0.0447200000
  C         7.3600700000        4.1974900000       -0.0471400000
  C         8.5883300000        4.9095100000       -0.0464400000
  C         9.8158000000        4.1968200000       -0.0486400000
  C        11.0447100000        4.9093200000       -0.0464600000
  C        12.2715700000        4.1971700000       -0.0479000000
  C        13.5007000000        4.9096200000       -0.0469300000
  C        14.7279200000        4.1978900000       -0.0452800000
  C        15.9562200000        4.9103700000       -0.0438500000
  C        17.1841900000        4.1984800000       -0.0298300000
  C        18.4122600000        4.9110900000       -0.0308800000
  C        19.6399200000        4.1988900000       -0.0099700000
  C        20.8691200000        4.9114600000       -0.0248600000
  C        19.6383700000        2.7476600000        0.0283000000
  C        18.4098400000        2.0608600000        0.0322600000
  C        17.1827200000        2.7467800000       -0.0073500000
  C        15.9544600000        2.0595100000       -0.0225600000
  C        14.7268400000        2.7459600000       -0.0407700000
  C        13.4986400000        2.0592300000       -0.0454300000
  C        12.2703400000        2.7453700000       -0.0485800000
  C        11.0423300000        2.0585600000       -0.0493100000
  C         9.8144500000        2.7450300000       -0.0502400000
  C         8.5856500000        2.0587100000       -0.0497400000
  C         6.1293900000        2.0596300000       -0.0359000000
  C         7.3585700000        2.7456800000       -0.0471400000
  C         4.9021700000        2.7465600000       -0.0209200000
  C         3.6742300000        2.0602300000        0.0182300000
  C         2.4461900000        2.7473300000        0.0211800000
  C         2.4476600000        4.1989000000       -0.0146200000
  C         1.2181900000        2.0612600000        0.0477000000
  C        11.2725400000       16.3721000000        3.8449200000
  C        12.5001200000       17.0589700000        3.8533800000
  C        13.7268600000       16.3716800000        3.8498300000
  C        14.9570900000       17.0579400000        3.8398800000
  C        16.1796000000       16.3692200000        3.8121100000
  C        17.4137000000       17.0558400000        3.7809800000
  C        18.6265500000       16.3632400000        3.7448100000
  C        19.8690200000       17.0515000000        3.7272700000
  C        21.0661600000       16.3697200000        3.6855300000
  C        22.3251300000       17.1586100000        3.6929800000
  C        23.5813300000       16.3692500000        3.6620400000
  C        24.7794900000       17.0515300000        3.6745300000
  C        26.0213400000       16.3639100000        3.6967600000
  C        27.2344700000       17.0562800000        3.7442600000
  C        28.4684400000       16.3703600000        3.7844100000
  C        29.6912400000       17.0589000000        3.8275300000
  C        28.4634100000       14.9200300000        3.7780100000
  C        26.0108300000       14.9186900000        3.6910500000
  C        23.5537200000       14.9283300000        3.6507400000
  C        21.0916200000       14.9283300000        3.6645300000
  C        18.6352500000       14.9178500000        3.7288000000
  C        17.4061300000       14.2048400000        3.7607200000
  C        16.1828000000       14.9189700000        3.8040300000
  C        14.9521500000       14.2061100000        3.8293300000
  C        13.7270600000       14.9196000000        3.8469800000
  C        12.4980100000       14.2066200000        3.8489100000
  C        11.2703600000       14.9199500000        3.8415000000
  C        10.0441300000       14.2066500000        3.8165000000
  C        27.2387900000       14.2062000000        3.7325900000
  C        24.7799200000       14.2100700000        3.6607800000
  C        22.3219300000       14.2128400000        3.6487100000
  C        19.8644700000       14.2095000000        3.6854400000
  C        27.2350600000       12.7687000000        3.7300400000
  C        26.0046200000       12.0553500000        3.6910100000
  C        24.7768600000       12.7704200000        3.6629500000
  C        23.5486000000       12.0569300000        3.6582100000
  C        22.3201100000       12.7770800000        3.6513700000
  C        21.0906500000       12.0565400000        3.6651300000
  C        19.8633300000       12.7695200000        3.6822400000
  C        18.6346500000       12.0532700000        3.7171700000
  C        17.4055900000       12.7669700000        3.7519400000
  C        16.1789600000       12.0522800000        3.7823700000
  C        14.9507100000       12.7687400000        3.8200000000
  C        13.7236200000       12.0536900000        3.8326500000
  C        12.4960100000       12.7696800000        3.8429200000
  C        11.2671300000       12.0538700000        3.8307300000
  C        10.0413100000       12.7693000000        3.8117700000
  C         8.8116200000       12.0534800000        3.7697400000
  C         8.8110400000       10.6187000000        3.7673500000
  C        10.0384000000        9.9029200000        3.7932800000
  C        11.2661700000       10.6180400000        3.8126600000
  C        12.4940100000        9.9026100000        3.7965500000
  C        13.7226700000       10.6179800000        3.8126500000
  C        14.9495100000        9.9025100000        3.7935500000
  C        16.1783300000       10.6177400000        3.7746500000
  C        17.4054600000        9.9028300000        3.7474500000
  C        18.6337400000       10.6189100000        3.7207700000
  C        19.8621300000        9.9032100000        3.7037500000
  C        21.0899800000       10.6204200000        3.6848100000
  C        22.3181200000        9.9031600000        3.7015200000
  C        23.5475400000       10.6208000000        3.6826700000
  C        24.7745500000        9.9040500000        3.7024300000
  C        26.0066700000       10.6225400000        3.7031900000
  C        24.7728200000        8.4687300000        3.7326400000
  C        23.5452100000        7.7536700000        3.7446700000
  C        22.3171100000        8.4694500000        3.7322000000
  C        21.0879300000        7.7532200000        3.7419700000
  C        19.8615100000        8.4677400000        3.7304600000
  C        18.6318200000        7.7520000000        3.7426400000
  C        17.4046300000        8.4666800000        3.7473900000
  C        16.1761000000        7.7514300000        3.7534200000
  C        14.9482600000        8.4667000000        3.7668600000
  C        13.7202700000        7.7517200000        3.7592900000
  C        12.4928700000        8.4670900000        3.7685600000
  C        11.2642600000        7.7519400000        3.7594600000
  C        10.0375000000        8.4671400000        3.7670400000
  C         8.8084200000        7.7520200000        3.7535400000
  C         7.5812400000        8.4675900000        3.7456300000
  C         7.5837200000        9.9041700000        3.7384100000
  C         6.3530500000        7.7527300000        3.7449800000
  C         6.3509200000        6.3136800000        3.7602100000
  C         7.5777900000        5.6011200000        3.7589900000
  C         8.8062900000        6.3127800000        3.7504400000
  C        10.0340500000        5.6001700000        3.7480200000
  C        11.2623100000        6.3121900000        3.7487200000
  C        12.4897800000        5.5995000000        3.7465200000
  C        13.7186900000        6.3120000000        3.7487000000
  C        14.9455500000        5.5998500000        3.7472600000
  C        16.1746800000        6.3123000000        3.7482300000
  C        17.4019000000        5.6005700000        3.7498800000
  C        18.6302000000        6.3130500000        3.7513100000
  C        19.8581700000        5.6011600000        3.7653300000
  C        21.0862400000        6.3137700000        3.7642800000
  C        22.3139000000        5.6015700000        3.7851900000
  C        23.5431000000        6.3141400000        3.7703000000
  C        22.3123500000        4.1503400000        3.8234600000
  C        21.0838200000        3.4635400000        3.8274200000
  C        19.8567000000        4.1494600000        3.7878100000
  C        18.6284400000        3.4621900000        3.7726000000
  C        17.4008200000        4.1486400000        3.7543900000
  C        16.1726200000        3.4619100000        3.7497300000
  C        14.9443200000        4.1480500000        3.7465800000
  C        13.7163100000        3.4612400000        3.7458500000
  C        12.4884300000        4.1477100000        3.7449200000
  C        11.2596300000        3.4613900000        3.7454200000
  C         8.8033700000        3.4623100000        3.7592600000
  C        10.0325500000        4.1483600000        3.7480200000
  C         7.5761500000        4.1492400000        3.7742400000
  C         6.3482100000        3.4629100000        3.8133900000
  C         5.1201700000        4.1500100000        3.8163400000
  C         5.1216400000        5.6015800000        3.7805400000
  C         3.8921700000        3.4639400000        3.8428600000
 Na        12.2824622024        9.9776279847        1.8258428335
