     114
 i =       58, E =      -699.2468335603
  C         8.6671428334       14.9582670555       -0.4698125088
  C         9.8636388352       15.7326377695       -0.3468570862
  C        11.0333335636       14.9993796501       -0.1010336732
  C        12.2805273966       15.7594087908        0.1294338955
  C        13.5328583991       14.9703460052        0.2303363195
  C        14.7202681625       15.6043231969        0.3783106244
  C        16.0018091784       15.0532358067        0.4180175426
  C        17.2549414012       15.5865078057        0.5566568831
  C        18.4869784512       14.9852462244        0.3826890238
  C        19.7137474205       15.6288375352        0.2684385007
  C        20.9142110832       15.0357371113       -0.0922967109
  C        22.1202025222       15.6321478520       -0.4438500278
  C        23.3477770400       14.9958775618       -0.5530138764
  C        24.5871237525       15.5871412210       -0.7415780968
  C        25.8383645270       15.0362476035       -0.6360172335
  C        27.1187013815       15.6170413212       -0.6634564188
  C        25.8349530731       13.5543703035       -0.4656951673
  C        23.3636895606       13.5356332889       -0.3704011175
  C        20.9134636440       13.5556008885       -0.0910128247
  C        18.4652165859       13.5336300209        0.1903111758
  C        15.9934301880       13.5675303182        0.2670968586
  C        14.7644863088       12.8476365289        0.1827209298
  C        13.5237177692       13.5363249131        0.1447266143
  C        12.3014424167       12.8322411141        0.0113221482
  C        11.0765930051       13.5638957664       -0.0974776913
  C         9.8633240408       12.8252808497       -0.2117885660
  C         8.6440544528       13.5227955008       -0.3560401044
  C         7.4050386012       12.8320749867       -0.3778350284
  C        24.5987237155       12.8463709709       -0.3773559576
  C        22.1382914989       12.8439250555       -0.2041679118
  C        19.6904735020       12.8422314563        0.0232667696
  C        17.2254299643       12.8511476190        0.1867501153
  C        24.5953816684       11.4145744764       -0.2801279307
  C        23.3657653495       10.7031379685       -0.2098559404
  C        22.1372414975       11.4134430060       -0.1661023801
  C        20.9092328314       10.7001278280       -0.0991816904
  C        19.6846171469       11.4127263161       -0.0250347388
  C        18.4519509144       10.7047617476        0.0142171293
  C        17.2223461336       11.4186552125        0.0910586794
  C        15.9969932763       10.7014893449        0.0827111518
  C        14.7685192381       11.4163803267        0.1040679483
  C        13.5405410663       10.7012993167        0.0392684585
  C        12.3080191198       11.4111308066       -0.0123901011
  C        11.0818648304       10.6881405461       -0.0878664604
  C         9.8600333164       11.3996456942       -0.1734392118
  C         8.6274842450       10.6901774894       -0.2107007551
  C         7.3981127544       11.4040344669       -0.2841007101
  C         6.1718354494       10.6934504706       -0.2624445923
  C         6.1709237666        9.2680487087       -0.1947982638
  C         7.3960289543        8.5537191026       -0.1477834096
  C         8.6260108171        9.2673932772       -0.1523119013
  C         9.8536787087        8.5539958557       -0.0862494477
  C        11.0819568667        9.2670180753       -0.0650427771
  C        12.3127783494        8.5561502265       -0.0170871938
  C        13.5406554211        9.2742643475        0.0118652555
  C        14.7674548002        8.5596606655        0.0093847600
  C        15.9969030835        9.2753957405        0.0242019470
  C        17.2229401019        8.5619357144       -0.0257410820
  C        18.4506762962        9.2779759027       -0.0342084879
  C        19.6783976758        8.5629612193       -0.0948041969
  C        20.9068746799        9.2744187925       -0.1135934894
  C        22.1355735218        8.5605106658       -0.1471707751
  C        23.3639730559        9.2743549776       -0.1763803928
  C        22.1327998023        7.1336909828       -0.1512737458
  C        20.9019739346        6.4224435335       -0.1832857452
  C        19.6761317162        7.1359226364       -0.1531890028
  C        18.4464541314        6.4226866189       -0.1791351157
  C        17.2198113864        7.1345349493       -0.0984272689
  C        15.9926907556        6.4200053015       -0.1017152059
  C        14.7647603497        7.1326742297       -0.0307234288
  C        13.5374982623        6.4188276071       -0.0150289681
  C        12.3102440901        7.1321559995       -0.0007401368
  C        11.0786925021        6.4188851514        0.0250264134
  C         9.8519136184        7.1292780033       -0.0186394933
  C         8.6213466735        6.4166907701        0.0132444057
  C         7.3937468173        7.1285214094       -0.0630249439
  C         6.1656651683        6.4166679663       -0.0396242959
  C         4.9383077887        7.1303312430       -0.1097164763
  C         4.9409167725        8.5561283353       -0.1686286869
  C         3.7100176601        6.4185195680       -0.1179405186
  C         3.7072681075        4.9851201056       -0.0831871963
  C         4.9286529502        4.2859714837        0.0870471892
  C         6.1620267555        4.9905756349        0.1049448825
  C         7.3855149798        4.3044359594        0.2944429430
  C         8.6189577891        4.9961639869        0.1882693806
  C         9.8509585084        4.3028960355        0.2962125947
  C        11.0774053131        4.9911388519        0.1327110237
  C        12.3082831323        4.2843103548        0.0957393490
  C        13.5348504931        4.9854562262       -0.0340828721
  C        14.7564267675        4.2860244602       -0.1972650696
  C        15.9887099377        4.9923711381       -0.2320138189
  C        17.2110248548        4.3054738376       -0.4262265030
  C        18.4438603304        4.9996276743       -0.3390579461
  C        19.6750582056        4.3034768088       -0.4369019183
  C        20.9008085395        4.9924585925       -0.2743672059
  C        19.6837518984        2.8572543085       -0.7349193486
  C        18.4410834010        2.2800149235       -1.0005354590
  C        17.1985881095        2.8667566829       -0.7610682687
  C        15.9532223962        2.2483841705       -0.7457847449
  C        14.7413998557        2.8183979466       -0.3613952873
  C        13.5248003932        2.2041305765       -0.1002536244
  C        12.3131897221        2.8120393920        0.1956017196
  C        11.0996788461        2.2395656582        0.5691297761
  C         9.8601323358        2.8630891667        0.6231927648
  C         8.6179541579        2.2895238660        0.8998007707
  C         6.1280434642        2.2541782091        0.6491260662
  C         7.3741326316        2.8710499826        0.6524560927
  C         4.9146127209        2.8200090119        0.2634796333
  C         3.6974806403        2.2037542391        0.0078146057
  C         2.4868989194        2.8102797006       -0.2960849476
  C         2.4816487395        4.2841261941       -0.2141279539
  C         1.2743266511        2.2341149589       -0.6651534143
  O        12.3188106525       17.0038987618        0.2259241537
 Na        10.3311407716       18.0887351313       -0.3240502392
