      55
 i =      118, E =      -291.9457930966
 Na         2.9969120968        7.3592432584        1.8982965967
  C         0.0172849203        7.4476553463       -0.3378888414
  C        -0.7061521187        6.2419306746       -0.1275786016
  C        -0.0043106193        5.0063850559       -0.1305815507
  C        -0.7142293891        3.7631790285       -0.0366809544
  C        -0.0015379863        2.5180172431       -0.0264084762
  C        -0.7015454479        1.2865641179        0.0282930843
  C         0.0318811490        0.0696818952        0.0579243639
  C         1.4017483686        0.0676313726        0.0423138286
  C         1.4343750498        2.5156705453       -0.0578522552
  C         2.1475963393        3.7573073446       -0.1503123854
  C         1.4324772649        4.9997910215       -0.2332620433
  C         2.1317020886        6.2264385238       -0.4070269553
  C         1.3855095397        7.4432728741       -0.4970747366
  C         2.1352967481        1.2833432868       -0.0128056786
  C         4.3132686209        0.0672476042        0.0405009375
  C         3.5795238578        1.2829699617       -0.0131206394
  C         4.2806268722        2.5151177346       -0.0577619747
  C         3.5673139497        3.7566752547       -0.1506635879
  C         4.2829426138        4.9984833000       -0.2370905511
  C         3.5831580006        6.2245861656       -0.4140165831
  C         4.3311330308        7.4411726053       -0.5123880366
  C         5.7000283218        7.4464486664       -0.3507085466
  C         6.4221326352        6.2412246335       -0.1314837147
  C         5.7198709578        5.0055584521       -0.1335233390
  C         6.4292995959        3.7625890897       -0.0370031371
  C         5.7165195090        2.5175052252       -0.0262192742
  C         6.4164981256        1.2861683331        0.0288594100
  C         5.6831363873        0.0692852180        0.0569095843
  C         8.5945268985        0.0714884608        0.0531410123
  C         7.8608815927        1.2880403285        0.0455934354
  C         8.5611335620        2.5216719174        0.0415121853
  C         7.8478933344        3.7658163271        0.0169791368
  C         8.5600128869        5.0116363736        0.0364429860
  C         7.8599005798        6.2457478487        0.0228285702
  C         8.5932098026        7.4583603882        0.1368736610
  C         9.9659595561        7.4583185590        0.1376756308
  C        10.6995427807        6.2459319779        0.0236741167
  C         9.9994203980        5.0117948560        0.0366334103
  C        10.7112466983        3.7660684948        0.0169866408
  C         9.9981726204        2.5218553772        0.0411507454
  C        10.6981490970        1.2882833568        0.0446110355
  C         9.9646950730        0.0717584723        0.0520263424
  H         6.1971887171       -0.8819616464        0.0991298267
  H        10.4780646511       -0.8807629074        0.0479183173
  H         8.0818412921       -0.8813886965        0.0510056329
  H         3.8003358080       -0.8849587140        0.0676814004
  H         1.9147628492       -0.8844906060        0.0724303692
  H        -0.4818796161       -0.8816854775        0.1010605764
  H        10.4837311289        8.4058956746        0.2234597850
  H         8.0755815144        8.4061148187        0.2215563339
  H         6.2283495006        8.3871232346       -0.4517843429
  H         3.8389582728        8.3725489359       -0.7742153808
  H         1.8781050020        8.3778326921       -0.7451705529
  H        -0.5101998690        8.3895329102       -0.4305991188
