115
i =      141, E =      -652.8155194496
C      8.6505715521   14.9969955697   -0.3854409800
C      9.8721814296   15.6131629198   -0.1648930867
C     11.0788094752   15.0164759234    0.1783607350
C     12.2884774773   15.6030201082    0.5405897863
C     13.5230028477   14.9820052030    0.6544109614
C     14.7623733671   15.5590949070    0.9423633165
C     16.0082826829   14.9592116265    0.7756409634
C     17.2588078637   15.5674285568    0.8333721190
C     18.4782327993   14.9910463300    0.4729927995
C     19.7007202715   15.6094991243    0.2616260203
C     20.9049571536   15.0152755636   -0.0929481042
C     22.1129363092   15.6002832942   -0.4599369374
C     23.3461914768   14.9806442283   -0.5865250093
C     24.5840116071   15.5591266106   -0.8822292693
C     25.8298409982   14.9585943517   -0.7079434658
C     27.0794048816   15.5691696579   -0.7540778416
C     25.8218460505   13.5156368650   -0.3821746482
C     23.3558599594   13.5231191319   -0.3390325186
C     20.9044152573   13.5375975327   -0.0685435360
C     18.4602607154   13.5273466718    0.2659266908
C     16.0002376956   13.5144039942    0.4549355231
C     14.7678406901   12.8240148220    0.3535282254
C     13.5334061564   13.5244789073    0.4050585755
C     12.3096881608   12.8331977032    0.2386703696
C     11.0805475598   13.5399704114    0.1409872396
C      9.8530221527   12.8362888749    0.0039287266
C      8.6342307972   13.5314352492   -0.1871213554
C      7.3984162570   12.8278821081   -0.2102051372
C     24.5902718024   12.8240247166   -0.2842128146
C     22.1324577684   12.8311249496   -0.1723404931
C     19.6776921018   12.8327262498    0.0683412571
C     17.2241562512   12.8249159155    0.2851071554
C     24.5864633490   11.3975217762   -0.1515822375
C     23.3545529772   10.6846804931   -0.1158740142
C     22.1300582051   11.3969632178   -0.1082040647
C     20.9004127995   10.6847102841   -0.0555606450
C     19.6735271989   11.3970159026    0.0155883596
C     18.4473823153   10.6845790179    0.0595742036
C     17.2188906286   11.3970504562    0.1544605948
C     15.9908013228   10.6844373894    0.1580720263
C     14.7644189486   11.3974871678    0.2174800898
C     13.5319835157   10.6858259423    0.1820594466
C     12.3079446215   11.3994740563    0.1748210004
C     11.0772160085   10.6884817523    0.1213080413
C      9.8491621352   11.4011643749    0.0510329144
C      8.6230319660   10.6896909205    0.0075729753
C      7.3934513184   11.4001870109   -0.0852348009
C      6.1652944038   10.6864422481   -0.0925861776
C      6.1618819013    9.2576913457   -0.0373161322
C      7.3877916685    8.5471263213    0.0303758700
C      8.6192565212    9.2629768391    0.0585052672
C      9.8447515580    8.5528099644    0.1262854370
C     11.0760422732    9.2642908663    0.1395831965
C     12.3052332166    8.5462589890    0.1624485742
C     13.5313598169    9.2575030298    0.1527940488
C     14.7603779898    8.5410966110    0.1180669061
C     15.9879380558    9.2549811752    0.0980172220
C     17.2115946969    8.5411102064    0.0338942108
C     18.4437422523    9.2569059429    0.0101021320
C     19.6689629694    8.5455404982   -0.0492152331
C     20.8992439613    9.2578582719   -0.0672849480
C     22.1286471884    8.5421946293   -0.0880501338
C     23.3535782408    9.2563650731   -0.0870432589
C     22.1280930885    7.1121842776   -0.1086306523
C     20.8956917953    6.4047417097   -0.1434308015
C     19.6673106567    7.1175385465   -0.0963396618
C     18.4397408737    6.4063584018   -0.0925893030
C     17.2083144745    7.1137242277   -0.0111014461
C     15.9812032576    6.3968370615    0.0303455267
C     14.7580351341    7.1139446822    0.1027571022
C     13.5277905690    6.4013513923    0.1681360095
C     12.3042567757    7.1186709816    0.1942221977
C     11.0691833663    6.4098539032    0.2480552092
C      9.8414557433    7.1284408766    0.1891686974
C      8.6164233267    6.4175624201    0.1819028921
C      7.3847226088    7.1223239195    0.0820289264
C      6.1570750749    6.4049003474    0.0355314325
C      4.9327084569    7.1149496048   -0.0398143045
C      4.9350358123    8.5426241914   -0.0581072665
C      3.7050184137    6.3955959970   -0.0906495829
C      3.7047098783    4.9577180621   -0.1256817138
C      4.9367037844    4.2472182327   -0.0104714562
C      6.1552812445    4.9717228499    0.0884898921
C      7.3837228217    4.2871747619    0.2611067403
C      8.6126400161    4.9937620612    0.2952485187
C      9.8311603340    4.2814672113    0.4455623107
C     11.0637997665    4.9940107950    0.3697909580
C     12.2937432555    4.2827014559    0.3920142986
C     13.5228402906    4.9673640640    0.2215790449
C     14.7489318270    4.2448029603    0.1237651968
C     15.9776916302    4.9580825722   -0.0103296122
C     17.2026451560    4.2731099215   -0.1894235398
C     18.4368641324    4.9804414570   -0.2070875485
C     19.6592398092    4.2864430022   -0.3547424061
C     20.8919806432    4.9787834782   -0.2539214765
C     19.6535673823    2.8443389851   -0.6484658664
C     18.4116367467    2.2112782400   -0.7315195968
C     17.1961985297    2.8129555609   -0.3789700372
C     15.9688994170    2.2166076521   -0.1728533160
C     14.7544685995    2.7562749366    0.1547255422
C     13.5034776506    2.2054082043    0.4717939677
C     12.3232111037    2.8580947612    0.6015370153
C     11.0637205819    2.1122628131    0.9155636153
C      9.8036122648    2.8667945732    0.6676027138
C      8.6031975764    2.1826273223    0.6607299717
C      6.1804211308    2.1597848092    0.2844122097
C      7.3711824142    2.8552772797    0.4137971252
C      4.9416552125    2.7557561539    0.0145637191
C      3.7080624066    2.2151534120   -0.2769847953
C      2.4752425618    2.8024019963   -0.4515470593
C      2.4746827157    4.2715749740   -0.2724408208
C      1.2430366415    2.2102509664   -0.7596786093
O     11.0600089970    0.9544086891    1.3339811255
H      8.6029151734    1.1057990703    0.8233486868
Na    11.9787673950    0.5809049606   -0.8714828491
