     193
 i =       88, E =     -1140.4520264142
  C         0.0013222962       -0.0005233233       -0.0961905942
  C        16.1453787824        2.8637769561       -2.1577691253
  C        15.4631397209        2.1499401497       -1.1333186046
  C        16.9004624633        2.1506691856       -3.1313427958
  C        17.7549192786        2.8595941505       -4.0219697494
  C        18.7159523702        2.1495070852       -4.7974342616
  C        19.8025401323        2.8633180883       -5.3799518524
  C        20.9749774712        2.1496367842       -5.7648251906
  C        23.4263037340        2.1489577790       -5.7440921409
  C        22.2024223999        2.8636969016       -5.8905105477
  C        26.6465305534        2.8628591511       -4.0153663057
  C        24.6029778881        2.8629752465       -5.3740468433
  C        25.6842083184        2.1489100439       -4.7842821539
  C        28.9365343046        2.1516986655       -1.1305542575
  C        27.5074854263        2.1502670260       -3.1342552477
  C        28.2677565375        2.8635544192       -2.1653423995
  C        28.9486149416        0.7152016518       -1.1376616030
  C        17.7558504140       11.4643014097       -4.0216954096
  C        16.1568074678       11.4655381265       -2.1552148420
  C        14.8025507044       11.4640271239       -0.0989654019
  C        13.4799750592       11.4641633271        1.9785313582
  C        11.8715694566       11.4649431206        3.8412665003
  C        10.8889333150       10.7497468421        4.5821311831
  C         9.8008329032       11.4657103146        5.1568798194
  C         8.6267436803       10.7509327057        5.5291941655
  C         7.4012044747       11.4650297956        5.6522016124
  C         6.1774417265       10.7499726130        5.5175599576
  C         4.9947125829       11.4637281901        5.1709088772
  C         3.9095455187       10.7496329844        4.5881912819
  C        16.9017612821       10.7506157187       -3.1342959489
  C        15.4670533490       10.7517034387       -1.1356699926
  C        14.1774280663       10.7523969568        0.9629825575
  C        12.7198211177       10.7514085317        2.9478751351
  C        16.9012332522        9.3144144795       -3.1325997295
  C        16.1480866806        8.6028002236       -2.1567423532
  C        15.4559086963        9.3152403085       -1.1381878064
  C        14.8176510600        8.5997557043       -0.0868932939
  C        14.1482621560        9.3156053708        0.9443310594
  C        13.4922630051        8.6009369752        1.9858256489
  C        12.7238242672        9.3150964400        2.9476358226
  C        11.8639711574        8.6016599703        3.8297060181
  C        10.8954163751        9.3138848445        4.5916002300
  C         9.8019408011        8.5994845298        5.1585878343
  C         8.6275765501        9.3152907015        5.5284353795
  C         7.4012568992        8.6020210112        5.6495889675
  C         6.1737534607        9.3143968736        5.5350635700
  C         4.9976467683        8.6010829834        5.1656665820
  C         3.9090930532        9.3138626699        4.5875859275
  C         2.9318046766        8.6011932614        3.8375527223
  C         2.9354020563        7.1650789221        3.8380037927
  C         3.9064132140        6.4506839158        4.5946751529
  C         5.0028727509        7.1654146378        5.1553514710
  C         6.1733013431        6.4505293796        5.5401833901
  C         7.3998416116        7.1665246923        5.6439688859
  C         8.6254235132        6.4506862473        5.5299915613
  C         9.8030476811        7.1637169438        5.1650346687
  C        10.8912172518        6.4513886419        4.5856053833
  C        11.8662987170        7.1656015794        3.8339522904
  C        12.7255233749        6.4509517507        2.9523282890
  C        13.4784772069        7.1643753425        1.9778684904
  C        14.1553694555        6.4500625292        0.9507166719
  C        14.8182901324        7.1633233518       -0.0863577870
  C        15.4500701284        6.4526170220       -1.1445535991
  C        16.1523155762        7.1662821827       -2.1560683791
  C        15.4681773365        5.0158529453       -1.1322218014
  C        14.8062715871        4.3015880771       -0.0953880510
  C        14.1709910410        5.0135252330        0.9596385403
  C        13.4826653389        4.3020514898        1.9812229418
  C        12.7216757226        5.0145158417        2.9501753202
  C        11.8677736404        4.3009712244        3.8379329660
  C        10.8902891282        5.0155278695        4.5860731474
  C         9.8023078279        4.2991960115        5.1606624142
  C         8.6265172065        5.0150155535        5.5255622201
  C         7.4013845123        4.3014326998        5.6556564371
  C         6.1768834866        5.0147729257        5.5180973695
  C         4.9958275730        4.2997169276        5.1687354457
  C         3.9096478258        5.0148019367        4.5893590463
  C         2.9405754962        4.3001438661        3.8307361233
  C         2.0705908697        5.0154860346        2.9602336611
  C         2.0824984929        6.4518547765        2.9491290679
  C         1.3208373993        4.3028666295        1.9826904280
  C         1.3154215402        2.8664282108        1.9845133970
  C         2.0857837251        2.1507978502        2.9438083703
  C         2.9251246427        2.8639972081        3.8461905877
  C         3.9109677872        2.1505549094        4.5844474161
  C         4.9988538399        2.8640502882        5.1626226478
  C         6.1745144693        2.1514215386        5.5344452634
  C         7.4010654804        2.8659373111        5.6455886972
  C         8.6268409685        2.1508510092        5.5298933660
  C         9.8043252815        2.8634856436        5.1640709378
  C        10.8925405614        2.1505508240        4.5855574845
  C        11.8646074230        2.8647942592        3.8301382384
  C        12.7290566659        2.1510644082        2.9526762776
  C        13.4739429679        2.8655789278        1.9727359767
  C        14.1750877913        2.1500818106        0.9621497535
  C        14.8029811691        2.8650403558       -0.0954007424
  C        14.1553786969        0.7134453390        0.9491075303
  C        13.4820217704        0.0005283258        1.9796708675
  C        12.7272306924        0.7146150262        2.9522252101
  C        11.8609866460        0.0010255464        3.8278281970
  C        10.8908790590        0.7147410178        4.5861749282
  C         9.8055498738        0.0013876431        5.1696608021
  C         8.6239613665        0.7153085762        5.5196993609
  C         7.4000216764        0.0004948609        5.6541514667
  C         6.1759233815        0.7157583584        5.5241374155
  C         4.9992866621       -0.0005556321        5.1631423475
  C         2.9372991861        0.0020670699        3.8346044254
  C         3.9089622593        0.7148115148        4.5918177686
  C         2.0653701483        0.7142247028        2.9631825958
  C         1.3327950107        0.0005466204        1.9725730709
  C         0.6270266815        0.7136030381        0.9633977200
  C         0.6396783492        2.1501742633        0.9578376257
  C        27.4953472804        0.7139946182       -3.1250259659
  C        29.6106296042        2.8640581983       -0.0995622227
  C        26.6624717933        0.0009293355       -4.0334678177
  C        16.1523520738        4.3005865362       -2.1543908226
  C        28.2587822782        0.0026876880       -2.1578673719
  C        24.5999269521        0.0008813075       -5.3762513081
  C        25.6727274525        0.7131956731       -4.7681906066
  C        23.4267113809        0.7131619851       -5.7564603097
  C        22.2007630046       -0.0023929821       -5.8782564506
  C        20.9751978498        0.7140304260       -5.7602754148
  C        19.8004793173        0.0007076742       -5.3847689508
  C        17.7478434416       -0.0000239852       -4.0322467445
  C        18.7244236390        0.7136519585       -4.7827701418
  C        16.1391104010        0.0018682946       -2.1678380680
  C        15.4646490518        0.7133679264       -1.1358969353
  C        16.9159872024        0.7144133774       -3.1239525315
  C        32.5376047150       11.4661661235        3.8349250399
  C        30.9124850363       11.4639636065        1.9875265552
  C        29.5904271654       11.4631309743       -0.0912387322
  C        28.2716057087       11.4663549561       -2.1705526946
  C        26.6460981909       11.4650655417       -4.0150076414
  C        25.6833189139       10.7514209453       -4.7822166142
  C        24.6011917954       11.4654398144       -5.3708333970
  C        23.4263240417       10.7524799642       -5.7449786015
  C        22.2009031068       11.4626060817       -5.8999935515
  C        20.9747226262       10.7516447031       -5.7539445921
  C        19.7964352967       11.4653068963       -5.3896225071
  C        18.7221438899       10.7511556041       -4.7856687004
  C        31.6752410575       10.7523397175        2.9557754180
  C        30.2478053950       10.7516136005        0.9505015646
  C        28.9310862482       10.7514478700       -1.1314236514
  C        27.4913787006       10.7498094091       -3.1210355581
  C        31.6744741865        9.3160138200        2.9542616528
  C        30.9318778098        8.6005597790        1.9732827487
  C        30.2278059868        9.3150170344        0.9639802625
  C        29.6024692318        8.6011947569       -0.0958172953
  C        28.9591445664        9.3149030388       -1.1446944194
  C        28.2487317578        8.6018272118       -2.1505832619
  C        27.5184732371        9.3133602710       -3.1445915667
  C        26.6445759529        8.6005747468       -4.0133997584
  C        25.6846649472        9.3157331314       -4.7840283674
  C        24.6001113582        8.6027455049       -5.3688443839
  C        23.4278973329        9.3170731044       -5.7504851787
  C        22.2027089326        8.6047433011       -5.8949696510
  C        20.9757848425        9.3165460324       -5.7572301553
  C        19.7990168036        8.6037555459       -5.3859051813
  C        18.7163723836        9.3155355797       -4.7945946262
  C        17.7598613341        8.6027326247       -4.0168773284
  C        17.7515390369        7.1665297157       -4.0239641472
  C        18.7207575670        6.4543357442       -4.7856153445
  C        19.8045503356        7.1677553928       -5.3754974175
  C        20.9750898975        6.4490107897       -5.7599367735
  C        22.2010028064        7.1688209056       -5.8733701237
  C        23.4274493242        6.4520124050       -5.7504208739
  C        24.5973242396        7.1666763653       -5.3629236820
  C        25.6829987701        6.4513776415       -4.7813635253
  C        26.6481543790        7.1645763490       -4.0164759966
  C        27.5113780646        6.4530597322       -3.1359623984
  C        28.2621534855        7.1653844697       -2.1592929698
  C        28.9530484738        6.4516803538       -1.1405845842
  C        29.5834895047        7.1646470815       -0.0832325821
  C        30.2518821284        6.4492598887        0.9492229785
  C        30.9059239058        7.1638824954        1.9917801400
  C        30.2416542594        5.0128099540        0.9540178194
  C        29.5799462836        4.3006963052       -0.0845832923
  C        28.9522614402        5.0150677331       -1.1426490810
  C        28.2593153287        4.3001215911       -2.1588695965
  C        27.5007107520        5.0165106761       -3.1261635584
  C        26.6548092175        4.2991104049       -4.0181240336
  C        25.6871315155        5.0151081558       -4.7771745138
  C        24.6002888338        4.2996298959       -5.3557858672
  C        23.4346934803        5.0140309595       -5.7600229796
  C        22.2027003980        4.3007694491       -5.8686911710
  C        20.9570387983        5.0080148671       -5.8336470965
  C        19.7998704279        4.3005947771       -5.3710767586
  C        18.7053044624        5.0161711372       -4.7982934598
  C        17.7616375774        4.2964526646       -4.0094904643
  C        16.8966421934        5.0142016482       -3.1350518080
  C        16.9103584517        6.4512558227       -3.1248381441
  C        14.8173800660        0.0004589593       -0.0889161526
 Na        21.5719405805        4.8852144088       -2.6224026161
