     105
 i =      155, E =      -573.0371569422
  C        -0.0865272397        0.0062445703       -0.6572511835
  C         4.1747285241       -7.3803736665       -0.0281139379
  C         7.0270293110       -7.3796863894       -0.0268607844
  C        -0.0884083074       -9.8512470788       -0.0055793362
  C         4.8778353058        1.2265136361       -0.0729980293
  C         6.2737324521        1.2824513415        0.1478849896
  C         7.0230648247        0.0396001300       -0.0694405639
  C         2.7506058970       -4.9127286061       -0.1237583094
  C         2.0142250579      -11.0635009706        0.0206250081
  C         6.2855448532      -11.0632013909        0.0110864799
  C         2.7556476591       -7.3811032428       -0.0390244887
  C         6.3153441705       -8.6183101024       -0.0053634655
  C         4.1779001089       -4.9102070102       -0.0985731356
  C         2.0408895793       -3.6781321253       -0.2067605096
  C         6.3135155558       -6.1411989500       -0.0519088910
  C         0.6149493243       -3.6808795416       -0.2497333064
  C         4.9172462718      -11.0637613718        0.0118373302
  C         2.0419486616       -6.1435827583       -0.0876990065
  C         4.8880056032       -6.1430357840       -0.0545937598
  C         4.8870438121       -8.6191394790       -0.0049391142
  C         6.3120615929       -1.1901277577       -0.1292367820
  C         4.8828628538       -1.2095134834       -0.1854247854
  C         4.1762557850        0.0283292566       -0.2550899523
  C         2.7485003926        0.0127480982       -0.4606455202
  C         2.0282272047        1.2022564177       -0.7271638166
  C         0.6588431168        1.2009290857       -0.8279200901
  C         0.6457781345      -11.0637652186        0.0164190168
  C        -0.0942498866       -4.9129928874       -0.1843049901
  C         7.0194142572       -9.8506904233        0.0047711719
  C         0.6153449208       -6.1454034383       -0.1101094729
  C        -0.0967538986       -7.3809299083       -0.0715887868
  C         7.0247797912       -2.4328620984       -0.1371834675
  C         0.6153979537       -8.6198645959       -0.0270486041
  C         2.0438160083       -8.6192604836       -0.0168021875
  C         2.7481468252       -9.8512294290        0.0053111128
  C         4.1830293237       -9.8510708141        0.0061711407
  C        -0.0980718623       -2.4496494636       -0.3697384690
  C         7.0225169331       -4.9075736332       -0.0854323476
  C         6.3114041829       -3.6720240360       -0.1150941508
  C         4.8882059016       -3.6771649498       -0.1287035576
  C         4.1752916069       -2.4393297996       -0.1928246548
  C         2.7516014826       -2.4471077979       -0.2551566619
  C         2.0427186922       -1.2153916228       -0.3956021875
  C         0.6155396524       -1.2170089242       -0.4757984065
  C         8.4476885813        0.0354718139       -0.1929383598
  C        12.7171956404       -7.3820951567       -0.0839717389
  C        15.5692065935       -7.3820800414       -0.0839601134
  C         8.4541074779       -9.8510967687        0.0023923035
  C        13.4528194591        1.2139588726       -0.7431129981
  C        14.8221070276        1.2096397720       -0.7947574972
  C        15.5615962893        0.0064964011       -0.6620867095
  C        11.2931974403       -4.9120543114       -0.1623902785
  C        10.5565774511      -11.0635844661        0.0128382709
  C        14.8285859988      -11.0632692326        0.0158436526
  C        11.2977904666       -7.3818353785       -0.0714299432
  C        14.8578813185       -8.6199959165       -0.0458538517
  C        12.7200268387       -4.9128462779       -0.1883277535
  C        10.5823385549       -3.6775728809       -0.1964559290
  C        14.8553958576       -6.1461270682       -0.1383209329
  C         9.1589877777       -3.6762301309       -0.1515785411
  C        13.4597083960      -11.0639782748        0.0154562166
  C        10.5841279429       -6.1442957851       -0.1010371888
  C        13.4300244574       -6.1459899328       -0.1364566900
  C        13.4296032312       -8.6203065899       -0.0467354121
  C        14.8556207676       -1.2166916423       -0.5096234013
  C        13.4260513173       -1.2150170100       -0.4727567556
  C        12.7174966517        0.0132418346       -0.5645699295
  C        11.2850356633        0.0187637625       -0.4678129785
  C        10.5443327746        1.2279982451       -0.5059858405
  C         9.1836567406        1.2431377008       -0.3570325986
  C         9.1881064752      -11.0637204025        0.0169119193
  C         8.4495178430       -4.9087928467       -0.1002229415
  C        15.5621826060       -9.8517189416       -0.0107690949
  C         9.1590524802       -6.1432535005       -0.0779637280
  C         8.4459812199       -7.3801402731       -0.0379058722
  C        15.5673456811       -2.4496592226       -0.3880231915
  C         9.1581359923       -8.6191853377       -0.0194568353
  C        10.5863257671       -8.6195411960       -0.0301152809
  C        11.2905127385       -9.8516998289       -0.0086245403
  C        12.7255384951       -9.8521463948       -0.0122210125
  C         8.4449962740       -2.4370768966       -0.1616533792
  C        15.5645760358       -4.9134993522       -0.1999494969
  C        14.8538512759       -3.6815248508       -0.2842904142
  C        13.4288110033       -3.6813477340       -0.2720535892
  C        12.7146042920       -2.4465544997       -0.3439610189
  C        11.2945844653       -2.4437033465       -0.2911378554
  C        10.5809428523       -1.2067914282       -0.3289987518
  C         9.1547289240       -1.2024176553       -0.2269015846
  H         0.1516054502        2.1359692572       -1.0439916985
  H         2.5631420683        2.1358512678       -0.8793675375
  H         4.3567927199        2.1838593664       -0.0945497375
  O         6.8283565488        2.3747395056        0.5733047824
  H         8.6411928817        2.1814333124       -0.3590983729
  H        11.0541877996        2.1762281068       -0.6464235297
  H        12.9338842399        2.1619386778       -0.8419383251
  H        15.3369990133        2.1557990845       -0.9283570854
  H         0.1296467046      -12.0179730961        0.0291818005
  H         2.5304823060      -12.0176216808        0.0377839404
  H         4.4011875528      -12.0180743990        0.0144399667
  H         6.8020647965      -12.0172889852        0.0133293059
  H         8.6720646142      -12.0179111236        0.0338202730
  H        11.0730066042      -12.0177264002        0.0253284236
  H        12.9441403310      -12.0182511351        0.0401592016
  H        15.3449933828      -12.0171882945        0.0402326506
 Na         5.5529004332        2.7657965873        2.2687768036
