     193
 i =       63, E =     -1140.4799776713
  C         0.0003351642        0.0003548917       -0.0934192730
  C        16.1063647859        2.8601852954       -2.1830968406
  C        15.4334564016        2.1489965611       -1.1500179225
  C        16.8671235966        2.1486209047       -3.1528882376
  C        17.7279980655        2.8624589881       -4.0340731432
  C        18.7079208191        2.1495823152       -4.7804043926
  C        19.7987130561        2.8641956261       -5.3520667729
  C        20.9768561565        2.1502177932       -5.7134333730
  C        23.4282360165        2.1502320820       -5.7137927035
  C        22.2024652789        2.8646660814       -5.8346570643
  C        26.6743731530        2.8640607300       -4.0307836619
  C        24.6062080915        2.8644246080       -5.3522591552
  C        25.6970984651        2.1501035353       -4.7800567633
  C        28.9630161426        2.1503398431       -1.1460198381
  C        27.5343209960        2.1502467432       -3.1491351376
  C        28.2877761783        2.8638413031       -2.1749576653
  C        28.9630047453        0.7137852914       -1.1460599848
  C        17.7313466563       11.4654334573       -4.0306315880
  C        16.1134014065       11.4655534004       -2.1770245324
  C        14.8002316543       11.4651483306       -0.0929964909
  C        13.4909573252       11.4646335407        1.9924959465
  C        11.8767411208       11.4643770457        3.8480629098
  C        10.8973625332       10.7503688022        4.5951457604
  C         9.8056563277       11.4644224273        5.1658200682
  C         8.6268639213       10.7501630558        5.5252301851
  C         7.4011767680       11.4644980678        5.6460047635
  C         6.1755843487       10.7500896365        5.5238175061
  C         4.9974701152       11.4643523476        5.1629668143
  C         3.9066976028       10.7500843555        4.5906931094
  C        16.8666996915       10.7535665980       -3.1526946434
  C        15.4333649249       10.7535764907       -1.1500512146
  C        14.1625465517       10.7524451245        0.9601537898
  C        12.7366288666       10.7509569808        2.9662532816
  C        16.8594579134        9.3177037931       -3.1607043019
  C        16.0907260339        8.6068501935       -2.1962069571
  C        15.4202600303        9.3176474099       -1.1597329131
  C        14.7789647100        8.6048392971       -0.1069436472
  C        14.1552177835        9.3161735389        0.9556408434
  C        13.4804419928        8.6015535756        1.9849391042
  C        12.7329385612        9.3145845215        2.9637236219
  C        11.8719470291        8.6004490646        3.8444455939
  C        10.8959970555        9.3144960013        4.5946652910
  C         9.8044291361        8.6002749584        5.1659624864
  C         8.6263540404        9.3145486903        5.5260620600
  C         7.4006013504        8.6001344505        5.6476705994
  C         6.1752119824        9.3144498468        5.5245569393
  C         4.9971368740        8.6001362520        5.1635551057
  C         3.9064737142        9.3142291129        4.5910060158
  C         2.9293714275        8.6002389843        3.8417605695
  C         2.9293195723        7.1641493687        3.8418299357
  C         3.9064237901        6.4501207291        4.5911036508
  C         4.9969286920        7.1643751625        5.1639639932
  C         6.1748376249        6.4500704327        5.5254378409
  C         7.4002840984        7.1645915143        5.6484082673
  C         8.6257556081        6.4500825781        5.5268742467
  C         9.8037875167        7.1645895250        5.1663328633
  C        10.8939194814        6.4501705418        4.5936167370
  C        11.8700802916        7.1645465247        3.8437436302
  C        12.7269515035        6.4504818862        2.9599112981
  C        13.4759600853        7.1650760340        1.9831159252
  C        14.1396841416        6.4507346346        0.9470957563
  C        14.7611053427        7.1672283965       -0.1152909111
  C        15.3764130221        6.4528143394       -1.1873310042
  C        16.0733820352        7.1681287017       -2.2117239522
  C        15.3963554931        5.0100174938       -1.1750797752
  C        14.7784439424        4.2979860615       -0.1055385711
  C        14.1438513740        5.0133173263        0.9488162915
  C        13.4797709499        4.2999127110        1.9852086597
  C        12.7278284140        5.0143352132        2.9600984587
  C        11.8709323661        4.3003315980        3.8439720471
  C        10.8941658259        5.0145129827        4.5934157188
  C         9.8040000390        4.3001200375        5.1660696809
  C         8.6259056983        5.0144117404        5.5268815544
  C         7.4004001510        4.2999111912        5.6479851576
  C         6.1748849721        5.0143347186        5.5254041069
  C         4.9970527215        4.3000544798        5.1637125787
  C         3.9064512761        5.0142219253        4.5910863353
  C         2.9294061053        4.3002182868        3.8417481046
  C         2.0685900605        5.0139421173        2.9609075828
  C         2.0686562481        6.4503331235        2.9608440238
  C         1.3144378039        4.3003888242        1.9872840896
  C         1.3142445415        2.8638816476        1.9873889325
  C         2.0687275262        2.1502838691        2.9607303216
  C         2.9293152781        2.8641115143        3.8418013960
  C         3.9066710750        2.1500449668        4.5906953884
  C         4.9972958449        2.8642878884        5.1633043991
  C         6.1753805239        2.1499365949        5.5242592350
  C         7.4007964709        2.8643723525        5.6470434714
  C         8.6266229459        2.1500017511        5.5257186705
  C         9.8047686126        2.8643970766        5.1657219871
  C        10.8965844873        2.1502164611        4.5946602704
  C        11.8734778387        2.8643109298        3.8454272369
  C        12.7355004042        2.1504125807        2.9655505251
  C        13.4858422873        2.8634780752        1.9886871503
  C        14.1623569076        2.1497586544        0.9603641981
  C        14.7935262688        2.8615658732       -0.0975151499
  C        14.1661261728        0.7134373772        0.9627813583
  C        13.4922125245        0.0008880196        1.9934293910
  C        12.7384207238        0.7140429497        2.9678043761
  C        11.8772095082        0.0005326371        3.8484709350
  C        10.8978255990        0.7142882552        4.5954759240
  C         9.8057899068        0.0002113508        5.1657467073
  C         8.6269862567        0.7143509170        5.5248587093
  C         7.4012871022       -0.0000198907        5.6459793356
  C         6.1757385873        0.7142844267        5.5234716979
  C         4.9975607923        0.0000524517        5.1627685773
  C         2.9294418677        0.0001802635        3.8416268735
  C         3.9066685302        0.7141821709        4.5907078587
  C         2.0684541044        0.7139081185        2.9609606772
  C         1.3143829924        0.0003591538        1.9872864004
  C         0.6381677215        0.7137952421        0.9589606367
  C         0.6381769508        2.1503545620        0.9589743793
  C        27.5340931101        0.7138776406       -3.1490759088
  C        29.6005396876        2.8639044526       -0.0934976382
  C        26.6738736747        0.0002288232       -4.0306030147
  C        16.0917591161        4.2968691360       -2.1966109459
  C        28.2873721713        0.0003673404       -2.1747620641
  C        24.6062454571        0.0001580152       -5.3533528308
  C        25.6968926567        0.7141520809       -4.7802504196
  C        23.4281804193        0.7144292807       -5.7143840561
  C        22.2025226076        0.0001633033       -5.8368604204
  C        20.9770918329        0.7144571644       -5.7136009290
  C        19.7993885275        0.0003024663       -5.3520329341
  C        17.7325415372        0.0007086053       -4.0293158016
  C        18.7092270141        0.7140487702       -4.7789094455
  C        16.1160256179        0.0011451651       -2.1746821405
  C        15.4387975629        0.7131573325       -1.1458938345
  C        16.8706773326        0.7130525205       -3.1489484139
  C        32.5293055346       11.4641097074        3.8418029369
  C        30.9142506445       11.4638844399        1.9873689056
  C        29.6005190038       11.4639312687       -0.0935340316
  C        28.2874824034       11.4639064880       -2.1748577287
  C        26.6738709924       11.4641255586       -4.0305692680
  C        25.6969823313       10.7501481085       -4.7802799822
  C        24.6063227391       11.4643010296       -5.3532839436
  C        23.4281665299       10.7500287796       -5.7140505849
  C        22.2025366372       11.4644784290       -5.8367059141
  C        20.9770290648       10.7502724099       -5.7132006104
  C        19.7991540567       11.4646563450       -5.3521223688
  C        18.7082281997       10.7513458486       -4.7796778332
  C        31.6686275630       10.7503234420        2.9608212155
  C        30.2381442821       10.7504146004        0.9589650832
  C        28.9629538804       10.7504237746       -1.1460503305
  C        27.5342355296       10.7503772627       -3.1492241656
  C        31.6685192012        9.3139614242        2.9609417687
  C        30.9143942038        8.6004216932        1.9873123189
  C        30.2382193908        9.3138701010        0.9589599463
  C        29.6005339773        8.6004283318       -0.0934988502
  C        28.9632190872        9.3138799869       -1.1461390454
  C        28.2879361793        8.6004749563       -2.1750517892
  C        27.5346168992        9.3140176202       -3.1493177925
  C        26.6744988162        8.6002951804       -4.0307894459
  C        25.6972465371        9.3142320843       -4.7801040197
  C        24.6062718060        8.6000853469       -5.3521856529
  C        23.4282156062        9.3143150109       -5.7133050909
  C        22.2023947368        8.6000717722       -5.8342652051
  C        20.9768010346        9.3145685492       -5.7127646688
  C        19.7983348997        8.6007664761       -5.3518459927
  C        18.7064571208        9.3155736321       -4.7818171975
  C        17.7233454399        8.6027652155       -4.0390114219
  C        17.7223220913        7.1661498285       -4.0424903186
  C        18.7053244804        6.4505676703       -4.7840397420
  C        19.7982524739        7.1648845337       -5.3525727021
  C        20.9768975293        6.4501839351       -5.7116829078
  C        22.2024574061        7.1646254493       -5.8338677110
  C        23.4280450006        6.4501174579       -5.7119571327
  C        24.6063077250        7.1643812517       -5.3517659046
  C        25.6974340198        6.4501775874       -4.7798635132
  C        26.6748413650        7.1641686109       -4.0309003021
  C        27.5350573730        6.4503533548       -3.1494923265
  C        28.2882414297        7.1639616414       -2.1751568231
  C        28.9634000874        6.4504224371       -1.1461894970
  C        29.6005858085        7.1639739962       -0.0934761218
  C        30.2382912253        6.4504240981        0.9589487462
  C        30.9143215993        7.1639293608        1.9873832933
  C        30.2381970404        5.0138427306        0.9589847122
  C        29.6005426389        4.3003728509       -0.0934871807
  C        28.9633168486        5.0138303656       -1.1461753630
  C        28.2881138497        4.3003658615       -2.1751150827
  C        27.5350151392        5.0139324925       -3.1495063121
  C        26.6746610466        4.3002026144       -4.0307917768
  C        25.6973613628        5.0142500646       -4.7798452395
  C        24.6062955349        4.3001684333       -5.3518606668
  C        23.4280708386        5.0145269838       -5.7120747906
  C        22.2024866767        4.3001998247       -5.8340468281
  C        20.9768358519        5.0146166150       -5.7120666860
  C        19.7983382578        4.3001258333       -5.3525664049
  C        18.7053653977        5.0141206924       -4.7837520154
  C        17.7247174864        4.2985748124       -4.0394730327
  C        16.8506811933        5.0115357362       -3.1698848836
  C        16.8463051586        6.4512425404       -3.1750797958
  C        14.8025533878        0.0011013777       -0.0913208027
 Na        17.7140013643        6.2588130138       -0.2343876181
