     129
 i =       92, E =      -709.6761533673
  C         8.6279238146       14.9850094942        0.0020264256
  C         9.8554982918       15.6717127669        0.0038241449
  C        11.0836134494       14.9870166332        0.0020525954
  C        12.3118907156       15.6732637390        0.0032350413
  C        13.5396815763       14.9881408351        0.0013379793
  C        14.7681490552       15.6736402516        0.0022088418
  C        15.9961326110       14.9878303857        0.0003516615
  C        17.2241607839       15.6734535981        0.0014137400
  C        18.4522915052       14.9875042385       -0.0003869323
  C        19.6803187789       15.6733864672        0.0012306025
  C        20.9080035484       14.9875484979       -0.0001410197
  C        22.1365367145       15.6729329529        0.0015025684
  C        23.3637278790       14.9868707606        0.0004544604
  C        24.5923735056       15.6715827809        0.0023891001
  C        25.8197127496       14.9852314171        0.0012460426
  C        27.0477431330       15.6704021368        0.0034961671
  C        25.8188270896       13.5393280878       -0.0017091951
  C        23.3624874810       13.5406102352       -0.0022357461
  C        20.9065265338       13.5418022497       -0.0024732379
  C        18.4512039622       13.5421789999       -0.0029694744
  C        15.9955372834       13.5421182054       -0.0025573644
  C        14.7664799100       12.8321166850       -0.0030413172
  C        13.5389914235       13.5419349862       -0.0010856008
  C        12.3106880014       12.8314810394       -0.0019339090
  C        11.0824914420       13.5411364256       -0.0003444984
  C         9.8541369168       12.8306425285       -0.0015560117
  C         8.6268936819       13.5397835829       -0.0007691815
  C         7.3975243840       12.8296634949       -0.0020646855
  C        24.5897109758       12.8297323629       -0.0026784899
  C        22.1341014255       12.8309763048       -0.0029037330
  C        19.6781079597       12.8321691959       -0.0033382840
  C        17.2221182929       12.8325083323       -0.0037958860
  C        24.5861822923       11.3961495640       -0.0009454706
  C        23.3572431001       10.6843293315        0.0030871115
  C        22.1308928071       11.3970713219       -0.0004603805
  C        20.9014544278       10.6849568422        0.0025018277
  C        19.6750554654       11.3977791701       -0.0018383609
  C        18.4463471153       10.6853395348       -0.0009113863
  C        17.2190103660       11.3984301940       -0.0040286021
  C        15.9907809359       10.6862194450       -0.0040083027
  C        14.7634346731       11.3986824080       -0.0045342284
  C        13.5343358670       10.6863292621       -0.0042984278
  C        12.3079543915       11.3978919831       -0.0036709898
  C        11.0780213540       10.6848069375       -0.0031592884
  C         9.8514182047       11.3962975900       -0.0028050333
  C         8.6223801914       10.6823059608       -0.0010985160
  C         7.3939471558       11.3955296164       -0.0020602776
  C         6.1658118547       10.6830683285        0.0015796994
  C         6.1636631107        9.2523824967        0.0168142847
  C         7.3906300651        8.5391799799        0.0236662130
  C         8.6204158496        9.2538859577        0.0077175133
  C         9.8477309677        8.5418308523        0.0114952203
  C        11.0758772235        9.2551301519        0.0017461185
  C        12.3045056148        8.5430209242        0.0048414260
  C        13.5328226813        9.2560057851       -0.0007425274
  C        14.7601673283        8.5435056318        0.0057942286
  C        15.9893657047        9.2560314661        0.0023796074
  C        17.2153058455        8.5431788330        0.0156744996
  C        18.4442255928        9.2555257887        0.0112745411
  C        19.6708748233        8.5427749788        0.0300018871
  C        20.8986950420        9.2550612945        0.0200320420
  C        22.1264321564        8.5419618736        0.0380284794
  C        23.3546074170        9.2538289471        0.0220079816
  C        22.1244909311        7.1128962539        0.0859578956
  C        20.8947867686        6.3998854211        0.1102578766
  C        19.6687284180        7.1127823771        0.0720046871
  C        18.4400358651        6.3996172722        0.0824812157
  C        17.2125777460        7.1131470795        0.0454090739
  C        15.9853169844        6.4009432620        0.0502842359
  C        14.7577903964        7.1143333496        0.0254856459
  C        13.5304069704        6.4032475538        0.0357587420
  C        12.3030471273        7.1140915622        0.0232172076
  C        11.0738250609        6.4024058223        0.0430838204
  C         9.8470503499        7.1121178146        0.0349979842
  C         8.6180129416        6.3963160038        0.0623556617
  C         7.3884605367        7.1105867174        0.0586906646
  C         6.1594310987        6.3995203580        0.0988070860
  C         4.9321761920        7.1114699243        0.0814442928
  C         4.9342752160        8.5402939323        0.0354017790
  C         3.7018624333        6.4010506189        0.1164819999
  C         3.6971880215        4.9703799644        0.1993629595
  C         4.9276877819        4.2617083953        0.2350109250
  C         6.1567063660        4.9664511992        0.1672204018
  C         7.3884882157        4.2552542314        0.1589630123
  C         8.6179562531        4.9674143620        0.0978320987
  C         9.8443448908        4.2579857900        0.1017939398
  C        11.0721264332        4.9690498624        0.0760779463
  C        12.2999386571        4.2613803251        0.0818653798
  C        13.5289608004        4.9705848929        0.0672788586
  C        14.7529045296        4.2580434699        0.0915799509
  C        15.9833063433        4.9681953780        0.0887907331
  C        17.2075377256        4.2578017946        0.1361824864
  C        18.4368039034        4.9678200420        0.1366336487
  C        19.6628771274        4.2587476060        0.2005077120
  C        20.8902446997        4.9687829406        0.1858648890
  C        19.6611310399        2.8153717952        0.2859524674
  C        18.4341758831        2.1293431786        0.2732937613
  C        17.2086927309        2.8129076373        0.1933445361
  C        15.9800450761        2.1261553631        0.1784034431
  C        14.7569329462        2.8127196206        0.1277940804
  C        13.5241149283        2.1272176890        0.1230109508
  C        12.3081693122        2.8193369352        0.1025733737
  C        11.0702581578        2.1333215596        0.1014699776
  C         9.8664349545        2.8200666717        0.1068010024
  C         8.6190136848        2.0655710243        0.0780852338
  C         6.1624935534        2.1464072077        0.3842177150
  C         7.3708232396        2.8232294019        0.2240046766
  C         4.9157769515        2.8227265406        0.3683914177
  C         3.6989589897        2.1394071094        0.4572666090
  C         2.4650643067        2.8180226786        0.3693022572
  C         2.4710884697        4.2597187298        0.2500315475
  C         1.2403868881        2.1335487534        0.3835409547
  H        27.0479501202       16.7593887871        0.0066250741
  H        24.5933359486       16.7605014303        0.0056137576
  H        22.1371032364       16.7618155128        0.0043872845
  H        17.2245224360       16.7624080250        0.0045197833
  H        14.7684627485       16.7625675391        0.0050184038
  H        12.3114992937       16.7621508151        0.0057043046
  H         9.8546675640       16.7606299729        0.0065772999
  H         1.2373784030        1.0481678797        0.4686748620
  H         3.6977358664        1.0566520766        0.5781452026
  H         6.1757075563        1.0806305148        0.6269118504
  O         8.6044442713        0.8120117064       -0.1372279727
  H        11.0496383296        1.0445360855        0.1048943514
  H        13.5187135947        1.0384279735        0.1428612358
  H        15.9781216119        1.0379974719        0.2156371928
  H        18.4323351123        1.0420596647        0.3305044128
  H        19.6805344652       16.7623045026        0.0040372221
 Na         6.9560296215        0.3518786624       -1.5280197161
