112
i =       67, E =      -663.1650184565
C      8.59654   14.93560    0.00212
C      9.82501   15.62053    0.00205
C     11.05263   14.93572    0.00191
C     12.28091   15.62068    0.00114
C     13.50827   14.93568    0.00134
C     14.73670   15.62031    0.00026
C     15.96403   14.93518    0.00083
C     17.19246   15.62010    0.00011
C     18.42006   14.93528    0.00050
Cx    19.64828   15.62066    0.00049
C     20.87615   14.93627    0.00105
C     22.10446   15.62153    0.00136
C     23.33226   14.93702    0.00178
C     24.56094   15.62166    0.00156
C     25.78836   14.93649    0.00184
C     27.01718   15.62097    0.00277
C     25.78677   13.49000    0.00204
C     23.33056   13.49032    0.00200
C     20.87427   13.48986    0.00160
C     18.41822   13.48920    0.00147
C     15.96241   13.48892    0.00207
C     14.73373   12.77948    0.00255
C     13.50644   13.48900    0.00257
C     12.27777   12.77945    0.00279
C     11.05040   13.48911    0.00259
C      9.82180   12.78004    0.00274
C      8.59461   13.48956    0.00231
C      7.36608   12.78066    0.00220
C     24.55794   12.78078    0.00208
C     22.10185   12.78068    0.00229
C     19.64574   12.78041    0.00186
C     17.18971   12.77992    0.00204
C     24.55635   11.34676    0.00182
C     23.32801   10.63504    0.00246
C     22.10049   11.34670    0.00314
C     20.87187   10.63469    0.00377
C     19.64449   11.34634    0.00300
C     18.41584   10.63405    0.00358
C     17.18819   11.34577    0.00302
C     15.95976   10.63367    0.00288
C     14.73209   11.34540    0.00225
C     13.50364   10.63350   -0.00052
C     12.27643   11.34543    0.00062
C     11.04780   10.63360   -0.00370
C      9.82067   11.34583   -0.00011
C      8.59194   10.63385   -0.00424
C      7.36451   11.34646   -0.00011
C      6.13605   10.63480   -0.00135
C      6.13462    9.20382   -0.01281
C      7.36161    8.49088   -0.03267
C      8.59020    9.20352   -0.02314
C      9.81716    8.48988   -0.04029
C     11.04586    9.20243   -0.02183
C     12.27301    8.48891   -0.02957
C     13.50190    9.20232   -0.01052
C     14.72917    8.48975   -0.00905
C     15.95818    9.20282    0.00111
C     17.18527    8.49014    0.00378
C     18.41402    9.20324    0.00525
C     19.64138    8.49061    0.00619
C     20.86999    9.20376    0.00473
C     22.09746    8.49102    0.00197
C     23.32637    9.20397   -0.00050
C     22.09491    7.05980   -0.00409
C     20.86614    6.34691    0.00145
C     19.63887    7.05908    0.00739
C     18.41006    6.34590    0.00601
C     17.18247    7.05856    0.00178
C     15.95395    6.34583   -0.01514
C     14.72629    7.05852   -0.02569
C     13.49815    6.34652   -0.06342
C     12.27005    7.05763   -0.06562
C     11.04086    6.34569   -0.10235
C      9.81460    7.05914   -0.08420
C      8.58579    6.34680   -0.10844
C      7.35863    7.06005   -0.07275
C      6.13042    6.34825   -0.07590
C      4.90298    7.05981   -0.03534
C      4.90562    8.49092   -0.01271
C      3.67401    6.34834   -0.02806
C      3.67269    4.91472   -0.05862
C      4.90001    4.20674   -0.11619
C      6.12904    4.91447   -0.12557
C      7.35670    4.20705   -0.18741
C      8.58415    4.91526   -0.17118
C      9.80909    4.20284   -0.20469
C     11.03955    4.91097   -0.15830
C     12.26953    4.20503   -0.15883
C     13.49823    4.91293   -0.10052
C     14.72528    4.20247   -0.07967
C     15.95364    4.91160   -0.03218
C     17.18112    4.20225   -0.01511
C     18.40938    4.91168    0.00252
C     19.63767    4.20261   -0.00129
C     20.86514    4.91270   -0.00762
C     19.63666    2.75640   -0.01277
C     18.40836    2.07206   -0.01870
C     17.18079    2.75621   -0.03155
C     15.95299    2.07201   -0.07946
C     14.72687    2.75650   -0.11127
C     13.49825    2.07434   -0.18021
C     12.27530    2.76127   -0.20802
C     11.04452    2.07936   -0.27820
C      9.81848    2.75879   -0.28048
C      8.57622    2.07727   -0.34300
C      6.12138    2.07746   -0.26234
C      7.34207    2.76654   -0.26896
C      4.89565    2.76353   -0.17320
C      3.67135    2.07559   -0.13979
C      2.44346    2.75799   -0.07021
C      2.44553    4.20399   -0.04146
C      1.21661    2.07246   -0.04178
