112
i =       67, E =      -663.1650184565
C      8.5965355683   14.9355994604    0.0021226475
C      9.8250072732   15.6205268779    0.0020493479
C     11.0526260748   14.9357208655    0.0019125745
C     12.2809098360   15.6206828893    0.0011410533
C     13.5082653423   14.9356792582    0.0013400096
C     14.7366992714   15.6203125502    0.0002596263
C     15.9640279399   14.9351834012    0.0008305153
C     17.1924645279   15.6200950428    0.0001130655
C     18.4200611896   14.9352768200    0.0004962163
Cx    19.6482794457   15.6206579717    0.0004881625
C     20.8761489179   14.9362650481    0.0010486979
C     22.1044552691   15.6215252194    0.0013587361
C     23.3322620793   14.9370187943    0.0017785288
C     24.5609371690   15.6216600093    0.0015610240
C     25.7883597142   14.9364872616    0.0018360953
C     27.0171765046   15.6209681071    0.0027696566
C     25.7867653875   13.4899984977    0.0020366392
C     23.3305626979   13.4903183724    0.0019970077
C     20.8742680274   13.4898553768    0.0015964002
C     18.4182209814   13.4892002502    0.0014658247
C     15.9624067436   13.4889151952    0.0020746461
C     14.7337285284   12.7794849584    0.0025470311
C     13.5064371110   13.4890045940    0.0025653467
C     12.2777686530   12.7794529008    0.0027910671
C     11.0503986473   13.4891144700    0.0025930784
C      9.8217985622   12.7800361552    0.0027399486
C      8.5946130105   13.4895616307    0.0023144989
C      7.3660763271   12.7806608760    0.0021959573
C     24.5579442054   12.7807781968    0.0020820991
C     22.1018547616   12.7806761795    0.0022865504
C     19.6457421337   12.7804146644    0.0018610461
C     17.1897100430   12.7799209505    0.0020447174
C     24.5563463816   11.3467592628    0.0018208893
C     23.3280054589   10.6350420380    0.0024630182
C     22.1004946280   11.3467044390    0.0031406860
C     20.8718741370   10.6346898726    0.0037690568
C     19.6444867629   11.3463436229    0.0029963427
C     18.4158390660   10.6340495223    0.0035789519
C     17.1881925909   11.3457679460    0.0030235635
C     15.9597592424   10.6336661210    0.0028803330
C     14.7320940304   11.3454044516    0.0022501756
C     13.5036360166   10.6335003375   -0.0005157178
C     12.2764288012   11.3454287542    0.0006187690
C     11.0478005870   10.6336035579   -0.0036997208
C      9.8206705231   11.3458327368   -0.0001148963
C      8.5919388796   10.6338484005   -0.0042408920
C      7.3645122347   11.3464577118   -0.0001133778
C      6.1360450139   10.6348029141   -0.0013517755
C      6.1346155464    9.2038211883   -0.0128127008
C      7.3616135001    8.4908843958   -0.0326661266
C      8.5901976970    9.2035245042   -0.0231435001
C      9.8171582192    8.4898826711   -0.0402869377
C     11.0458648946    9.2024320618   -0.0218289919
C     12.2730133553    8.4889118644   -0.0295703166
C     13.5018988265    9.2023225949   -0.0105166154
C     14.7291703443    8.4897494063   -0.0090517409
C     15.9581842887    9.2028156560    0.0011103007
C     17.1852664773    8.4901411465    0.0037780554
C     18.4140175626    9.2032361524    0.0052502228
C     19.6413849326    8.4906112837    0.0061931134
C     20.8699883273    9.2037610408    0.0047274020
C     22.0974602659    8.4910163831    0.0019738459
C     23.3263744681    9.2039675065   -0.0005022043
C     22.0949068251    7.0597965269   -0.0040881962
C     20.8661447039    6.3469060113    0.0014538681
C     19.6388748117    7.0590753713    0.0073915226
C     18.4100577390    6.3459001946    0.0060143065
C     17.1824736191    7.0585556029    0.0017765879
C     15.9539522264    6.3458258378   -0.0151357216
C     14.7262899295    7.0585168536   -0.0256891210
C     13.4981465915    6.3465249277   -0.0634175953
C     12.2700513583    7.0576270350   -0.0656173793
C     11.0408594286    6.3456862611   -0.1023509773
C      9.8146043644    7.0591385499   -0.0842025809
C      8.5857873462    6.3468000291   -0.1084375726
C      7.3586307920    7.0600525518   -0.0727472298
C      6.1304162746    6.3482490717   -0.0759028698
C      4.9029753044    7.0598125436   -0.0353442802
C      4.9056179925    8.4909197549   -0.0127067027
C      3.6740121987    6.3483362489   -0.0280555214
C      3.6726930159    4.9147229256   -0.0586236167
C      4.9000085268    4.2067391484   -0.1161911820
C      6.1290444327    4.9144695145   -0.1255714653
C      7.3567033308    4.2070530881   -0.1874079495
C      8.5841471210    4.9152579313   -0.1711764156
C      9.8090942695    4.2028445646   -0.2046856659
C     11.0395462104    4.9109741301   -0.1582956662
C     12.2695281857    4.2050303373   -0.1588312642
C     13.4982326443    4.9129281910   -0.1005210601
C     14.7252768256    4.2024729846   -0.0796687683
C     15.9536370408    4.9116022564   -0.0321773023
C     17.1811217006    4.2022472373   -0.0151137345
C     18.4093815528    4.9116776946    0.0025201135
C     19.6376746721    4.2026083490   -0.0012885686
C     20.8651425876    4.9126985039   -0.0076231699
C     19.6366571113    2.7563971020   -0.0127666335
C     18.4083552376    2.0720576909   -0.0186958681
C     17.1807855655    2.7562078802   -0.0315546209
C     15.9529936155    2.0720103482   -0.0794637757
C     14.7268731346    2.7565011442   -0.1112664126
C     13.4982536739    2.0743356898   -0.1802069336
C     12.2753024078    2.7612720181   -0.2080220573
C     11.0445203354    2.0793638592   -0.2781975231
C      9.8184769950    2.7587902890   -0.2804765340
C      8.5762221711    2.0772704219   -0.3430008963
C      6.1213773542    2.0774592712   -0.2623392563
C      7.3420743246    2.7665425484   -0.2689632922
C      4.8956461655    2.7635267369   -0.1731969360
C      3.6713452374    2.0755858630   -0.1397931963
C      2.4434570873    2.7579893569   -0.0702123218
C      2.4455273792    4.2039914849   -0.0414609209
C      1.2166122946    2.0724622831   -0.0417810950
