     193
 i =       80, E =     -1140.5787375969
  C        18.5296443432        2.1543378390       -0.8374673557
  C         6.3183220274       12.9022892870        3.5908288822
  C         7.5252147060       13.6162692526        3.8336000685
  C         8.7540835158       12.9025408516        3.9112191426
  C         9.9823872006       13.6164025367        3.8195158399
  C        11.1887180991       12.9029642809        3.5697297142
  C        12.3584829277       13.6165833210        3.1821644341
  C        13.4817219317       12.9034258831        2.6761330975
  C        14.5553988868       13.6169421864        2.0719613106
  C        15.5841138409       12.9041487778        1.3945468129
  C        16.5773210718       13.6174759958        0.6656823176
  C        17.5510626856       12.9056215908       -0.0895194532
  C        18.5280836560       13.6182235024       -0.8398744498
  C        19.5255979836       12.9068277493       -1.5649452165
  C        20.5659665707       13.6187599599       -2.2262588140
  C        21.6496641485       12.9065589385       -2.8131240446
  C        22.7824481857       13.6181380685       -3.2990643369
  C        21.6458116013       11.4705535385       -2.8215514625
  C        19.5168599244       11.4709490555       -1.5769961235
  C        17.5460997052       11.4692055177       -0.0945730512
  C        15.5830519229       11.4674663507        1.3940576104
  C        13.4821773157       11.4668379231        2.6779609912
  C        12.3591839925       10.7532896461        3.1848746723
  C        11.1887712871       11.4664621414        3.5705564475
  C         9.9824883003       10.7527750659        3.8205228454
  C         8.7540711791       11.4663664332        3.9113071190
  C         7.5253321411       10.7524283539        3.8332510104
  C         6.3183663536       11.4661630341        3.5907405503
  C         5.1510132688       10.7523340037        3.2020645573
  C        20.5522690379       10.7608592218       -2.2492656353
  C        18.5138997133       10.7586310316       -0.8578750672
  C        16.5722592460       10.7549940456        0.6601089244
  C        14.5551312852       10.7537659995        2.0728893205
  C        20.5405865395        9.3224548649       -2.2690088167
  C        19.4870582963        8.6070864012       -1.6148988256
  C        18.5011504289        9.3209942285       -0.8696066059
  C        17.5357780125        8.6044682026       -0.1047814446
  C        16.5696220130        9.3181019525        0.6590643237
  C        15.5817879102        8.6037048536        1.3943229563
  C        14.5552856868        9.3171071466        2.0747327781
  C        13.4829149417        8.6033018077        2.6808372201
  C        12.3595765432        9.3167385651        3.1865895905
  C        11.1892763518        8.6030180375        3.5723787472
  C         9.9825519334        9.3164434882        3.8205997264
  C         8.7541409665        8.6026164231        3.9110710064
  C         7.5252960625        9.3162824305        3.8330151635
  C         6.3183330659        8.6023534286        3.5905366062
  C         5.1509540707        9.3161310839        3.2019975319
  C         4.0316431388        8.6023508886        2.6905944388
  C         4.0317738312        7.1660224004        2.6903415125
  C         5.1508296717        6.4523401821        3.2022378151
  C         6.3182999090        7.1662456869        3.5904406149
  C         7.5253053635        6.4525889523        3.8328923253
  C         8.7540990509        7.1664686012        3.9109818502
  C         9.9825101635        6.4528834876        3.8204621301
  C        11.1891747662        7.1665305162        3.5721204966
  C        12.3594496533        6.4532388411        3.1860036585
  C        13.4829566582        7.1668206871        2.6805989328
  C        14.5554189178        6.4535581903        2.0742697691
  C        15.5820236075        7.1671011503        1.3941562828
  C        16.5717135566        6.4531867703        0.6611643488
  C        17.5387598825        7.1666384893       -0.1018038976
  C        18.5116685716        6.4510885752       -0.8563735453
  C        19.5003129831        7.1636583999       -1.5972687091
  C        18.5233301510        5.0142571663       -0.8448536796
  C        17.5505826494        4.3027828899       -0.0885628846
  C        16.5748313713        5.0162945632        0.6634857391
  C        15.5839859878        4.3033919520        1.3952217754
  C        14.5552865676        5.0168268755        2.0728996587
  C        13.4818469797        4.3033330184        2.6769513599
  C        12.3589336759        5.0166571070        3.1840975711
  C        11.1886863530        4.3030143760        3.5700286106
  C         9.9824211475        5.0165393950        3.8200141317
  C         8.7540704340        4.3026201554        3.9111763600
  C         7.5253132798        5.0164204467        3.8331274940
  C         6.3183686069        4.3023607517        3.5907446164
  C         5.1510737163        5.0161122288        3.2018522431
  C         4.0319560865        4.3022745263        2.6900548305
  C         2.9648504422        5.0158638532        2.0764772822
  C         2.9646226248        6.4523975366        2.0768354376
  C         1.9426114495        4.3024171825        1.3910499423
  C         1.9428798256        2.8658031939        1.3906488669
  C         2.9650376261        2.1523274961        2.0761273597
  C         4.0320305209        2.8659505887        2.6898801748
  C         5.1511567583        2.1523143711        3.2017263539
  C         6.3183991657        2.8662160050        3.5906758938
  C         7.5252611246        2.1524711441        3.8337042597
  C         8.7540971530        2.8664108531        3.9111629437
  C         9.9823929742        2.1527999912        3.8193236133
  C        11.1886474243        2.8664764570        3.5691976175
  C        12.3584917166        2.1532471622        3.1819644586
  C        13.4815940525        2.8667141258        2.6756739713
  C        14.5555178692        2.1536826678        2.0719904417
  C        15.5847063606        2.8667319690        1.3953616529
  C        16.5780089983        2.1539708538        0.6666078670
  C        17.5531938664        2.8663528059       -0.0863460033
  C        20.5678872144        2.1545220128       -2.2228034689
  C        21.6525421127        2.8662553148       -2.8079993415
  C        25.1628022912        2.1536809675       -3.9211362790
  C        26.3908275962        2.8670392064       -4.0171844532
  C        28.8328455366        2.8667401632       -3.7319520322
  C        27.6207271604        2.1533682538       -3.9525022500
  C        33.2387255761        2.8660655347       -1.5853115147
  C        30.0079689535        2.1531325884       -3.3621276689
  C        31.1346817882        2.8663670591       -2.8636825616
  C        32.2098883246        2.1528953959       -2.2624135279
  C        34.2303646912        2.1526669816       -0.8551107779
  C        19.5260871289        4.3020575855       -1.5629592627
  C        22.7833055966        2.1540801011       -3.2972237968
  C        19.5296571931        2.8661249069       -1.5581838443
  C        35.2032685892        2.8658278588       -0.1000073473
  C         0.9536391994        2.1525055421        0.6572955760
  C        23.9559935528        2.8668375077       -3.6734778377
  C        23.9549716430       12.9045642297       -3.6752790079
  C        25.1625168901       13.6172847001       -3.9212807735
  C        26.3905638004       12.9034839120       -4.0166084297
  C        27.6206995648       13.6168349181       -3.9521897078
  C        28.8327317310       12.9030439094       -3.7315379687
  C        30.0079095102       13.6165535332       -3.3619002493
  C        31.1347734700       12.9029662202       -2.8639729295
  C        32.2097844288       13.6161614063       -2.2622520856
  C        33.2389373050       12.9027233599       -1.5856616144
  C        34.2303620247       13.6158934686       -0.8550590630
  C        35.2032817747       12.9024925819       -0.1000449103
  C        36.1737151549       13.6158120602        0.6571359494
  C        37.1627305793       12.9024244519        1.3907669424
  C        38.1850621246       13.6158248625        2.0760753261
  C        39.2520605946       12.9022736289        2.6898466874
  C        40.3711199117       13.6161031764        3.2017624226
  C        39.2520478362       11.4659724997        2.6899175092
  C        37.1627396829       11.4658317595        1.3909303207
  C        35.2033628498       11.4658161962       -0.0999898953
  C        33.2393760383       11.4660825661       -1.5860255823
  C        31.1352217704       11.4663715220       -2.8641383915
  C        30.0082926444       10.7530815079       -3.3617493242
  C        28.8327893825       11.4666333268       -3.7307716250
  C        27.6205567324       10.7532988005       -3.9502403262
  C        26.3905291083       11.4671765104       -4.0155846270
  C        25.1622345057       10.7540907926       -3.9195331261
  C        23.9544242023       11.4682063597       -3.6762246428
  C        22.7785600507       10.7563241322       -3.3065303302
  C        38.1847704176       10.7523943190        2.0766202712
  C        36.1737996488       10.7525244570        0.6572250004
  C        34.2309402361       10.7527275287       -0.8557107575
  C        32.2106853747       10.7529599654       -2.2632758317
  C        38.1846992226        9.3158859072        2.0766896372
  C        37.1625185836        8.6024599705        1.3911931805
  C        36.1737074079        9.3158358942        0.6572991028
  C        35.2035836997        8.6025706747       -0.1002985708
  C        34.2312949677        9.3159506826       -0.8560972181
  C        33.2399953585        8.6027402846       -1.5867956789
  C        32.2110577237        9.3162497684       -2.2636088822
  C        31.1357896945        8.6030310543       -2.8646971979
  C        30.0085689086        9.3166487269       -3.3617036081
  C        28.8330227391        8.6031855283       -3.7301293001
  C        27.6208252112        9.3170335315       -3.9495334263
  C        26.3907814355        8.6034502980       -4.0140544717
  C        25.1626050340        9.3176455109       -3.9190883660
  C        23.9545640778        8.6040704424       -3.6759965133
  C        22.7788770544        9.3195088910       -3.3090822879
  C        21.6385702625        8.6055786037       -2.8371978478
  C        21.6422775135        7.1650869084       -2.8295741603
  C        22.7815673218        6.4522875596       -3.3031335841
  C        23.9550999384        7.1671844440       -3.6752463806
  C        25.1630480065        6.4535950458       -3.9189068445
  C        26.3910207345        7.1673326511       -4.0141660726
  C        27.6210341731        6.4534695334       -3.9500056052
  C        28.8331627303        7.1668913476       -3.7303691497
  C        30.0086008701        6.4531696540       -3.3617740871
  C        31.1357508895        7.1664497096       -2.8645369991
  C        32.2110367236        6.4529396171       -2.2635957361
  C        33.2400044103        7.1660794553       -1.5867154968
  C        34.2311885786        6.4527139517       -0.8558980792
  C        35.2036787652        7.1658833392       -0.1003290183
  C        36.1738088672        6.4525333423        0.6572264746
  C        37.1624974059        7.1658462351        1.3912860568
  C        36.1737628991        5.0158212732        0.6572080831
  C        35.2033463397        4.3025273455       -0.1000372716
  C        34.2308392608        5.0159158219       -0.8555758305
  C        33.2392086161        4.3027283880       -1.5858986270
  C        32.2104380470        5.0162077752       -2.2629703095
  C        31.1350767484        4.3030075121       -2.8640955733
  C        30.0083079425        5.0166873351       -3.3619128635
  C        28.8329599649        4.3032423083       -3.7314724650
  C        27.6208962572        5.0170937377       -3.9510283762
  C        26.3908472844        4.3034210370       -4.0161855131
  C        25.1629478475        5.0170502369       -3.9190601559
  C        23.9559886370        4.3031184490       -3.6731047122
  C        22.7824265316        5.0156799073       -3.2985555429
  C        21.6516404835        4.3021690339       -2.8100700074
  C        20.5631710330        5.0129415467       -2.2302737268
  C        20.5535024287        6.4500874379       -2.2470357602
 Na        21.3670898735        8.2654618988        0.0470870977
