     113
 i =       35, E =      -685.0864436002
  C         8.6180663960       14.9271502983        0.0180073682
  C         9.8469439531       15.6467347341        0.0238271861
  C        11.0747444738       14.9289539219        0.0416103521
  C        12.3048050735       15.6466830528        0.0298761114
  C        13.5326721179       14.9281758618        0.0235282103
  C        14.7619924761       15.6458330356        0.0047443608
  C        15.9885577507       14.9259697644       -0.0193508357
  C        17.2173582344       15.6444822474       -0.0419012377
  C        18.4438887598       14.9248825067       -0.0735666329
  C        19.6727344064       15.6437499510       -0.0871408466
  C        20.8997440113       14.9244518927       -0.0982915332
  C        22.1285252838       15.6436031558       -0.0973499580
  C        23.3555561426       14.9244165119       -0.0838945160
  C        24.5840528548       15.6439971873       -0.0691646342
  C        25.8107507306       14.9251820661       -0.0322799605
  C        27.0390555207       15.6453917025       -0.0145351320
  C        25.8002769168       13.4999407481       -0.0151407495
  C        23.3456863742       13.4992559854       -0.0727896403
  C        20.8904785970       13.4992583851       -0.0986937473
  C        18.4352066988       13.4995472579       -0.0834194487
  C        15.9807082648       13.5005349965       -0.0283993670
  C        14.7520418167       12.7813157005       -0.0025959569
  C        13.5257749077       13.5030388174        0.0274698257
  C        12.2946303437       12.7856639473        0.0487045345
  C        11.0645729164       13.5037019085        0.0569210290
  C         9.8342146365       12.7828936849        0.0591218472
  C         8.6067891274       13.5018301905        0.0372403031
  C         7.3786258991       12.7804741098        0.0195875954
  C        24.5719240748       12.7796741026       -0.0379000101
  C        22.1170584971       12.7794340443       -0.0872454743
  C        19.6617412587       12.7796198381       -0.0979402794
  C        17.2066906318       12.7799849784       -0.0651096006
  C        24.5617432571       11.3543896948       -0.0243057513
  C        23.3336125788       10.6348197283       -0.0460147370
  C        22.1072707763       11.3542218363       -0.0773142588
  C        20.8788950362       10.6347671928       -0.0897397732
  C        19.6523008986       11.3543123226       -0.0983508282
  C        18.4239388146       10.6348001601       -0.0947366735
  C        17.1976216141       11.3545520617       -0.0754679987
  C        15.9697529194       10.6344277598       -0.0537337615
  C        14.7442147482       11.3551355748       -0.0129128864
  C        13.5162693152       10.6329517731        0.0101870572
  C        12.2864697509       11.3559199440        0.0405707157
  C        11.0514427292       10.6327443751        0.0535739601
  C         9.8217769653       11.3557817311        0.0633963774
  C         8.5938033151       10.6339130312        0.0503448956
  C         7.3678140980       11.3547453878        0.0284796163
  C         6.1399389383       10.6347619085        0.0065167011
  C         6.1316709300        9.2094784431        0.0100819479
  C         7.3579538129        8.4888855205        0.0237321438
  C         8.5868090831        9.2079721901        0.0400662096
  C         9.8132058825        8.4862073659        0.0361069973
  C        11.0442407439        9.2036027909        0.0385267643
  C        12.2738576932        8.4855283012        0.0076671807
  C        13.5042127483        9.2060634263       -0.0081571448
  C        14.7314086957        8.4875619323       -0.0485329886
  C        15.9595000539        9.2089733938       -0.0679588826
  C        17.1860629357        8.4895222110       -0.0909727309
  C        18.4146065059        9.2097161489       -0.0962319722
  C        19.6412460798        8.4901037774       -0.0899552532
  C        20.8698101704        9.2098217894       -0.0800351813
  C        22.0962516432        8.4902209499       -0.0512282628
  C        23.3247469237        9.2098004370       -0.0327674134
  C        22.0861922584        7.0649428123       -0.0367768009
  C        20.8575027201        6.3454842082       -0.0521143107
  C        19.6307534232        7.0646460139       -0.0799466917
  C        18.4021201604        6.3448535435       -0.0884028491
  C        17.1750844572        7.0639301870       -0.0945014970
  C        15.9465276717        6.3437041267       -0.0910893280
  C        14.7194435132        7.0621535165       -0.0690729177
  C        13.4904766055        6.3425096284       -0.0568695472
  C        12.2630474064        7.0601815525       -0.0175313251
  C        11.0330174222        6.3422303427       -0.0101135505
  C         9.8054972933        7.0608659446        0.0142322960
  C         8.5760929427        6.3430370510        0.0097758388
  C         7.3494948299        7.0631858928        0.0150114136
  C         6.1204632972        6.3445946823        0.0076619335
  C         4.8937765960        7.0644967777       -0.0008367038
  C         4.9031243922        8.4900548237       -0.0058063979
  C         3.6648684060        6.3454438642       -0.0110869722
  C         3.6566030526        4.9205188589       -0.0022824659
  C         4.8835687660        4.2011546071        0.0057771823
  C         6.1127384732        4.9196642876        0.0055516149
  C         7.3395240246        4.2001112949       -0.0004537352
  C         8.5686767213        4.9183070066       -0.0040759103
  C         9.7955456306        4.1991399398       -0.0268298505
  C        11.0248744683        4.9175901421       -0.0355790973
  C        12.2519261260        4.1989024602       -0.0691434159
  C        13.4811661623        4.9178469210       -0.0780094013
  C        14.7083897084        4.1992287518       -0.0943592709
  C        15.9371690012        4.9187881225       -0.0946707147
  C        17.1643078231        4.2000846366       -0.0849756317
  C        18.3928502237        4.9199003332       -0.0760205401
  C        19.6197410239        4.2011811819       -0.0456835716
  C        20.8485254580        4.9206299413       -0.0336900854
  C        19.6092306578        2.7760323657       -0.0238965039
  C        18.3805369842        2.0560531783       -0.0360233922
  C        17.1537969326        2.7747962282       -0.0703506178
  C        15.9251567770        2.0547591641       -0.0823990798
  C        14.6981448181        2.7738906198       -0.0959980621
  C        13.4691266257        2.0543284353       -0.0969253156
  C        12.2421111791        2.7737065882       -0.0852465094
  C        11.0128656459        2.0545473514       -0.0754881971
  C         9.7862555650        2.7739736795       -0.0455368586
  C         8.5571087558        2.0552285913       -0.0297634374
  C         6.1013101319        2.0564773801        0.0045608873
  C         7.3305853546        2.7749090766       -0.0067967783
  C         4.8743839816        2.7759078531        0.0102758836
  C         3.6447920680        2.0573177816        0.0168964089
  C         2.4175551753        2.7763623148        0.0061643174
  C         2.4274507822        4.2015793325       -0.0080868070
  C         1.1881685358        2.0573126514        0.0037947634
 Na        11.7767333017       11.0024987778        2.6385357669
