      43
 i =      146, E =      -284.0353332155
  C         0.5714170073       -0.9733972748        0.1465954098
  C        -0.2509681084        0.1557786160        0.1764177903
  C         0.4745819617        1.3889959356        0.2771890183
  C        -0.2468063136        2.6272242795        0.3248708428
  C         0.4709234124        3.8534907553        0.4665079898
  C        -0.2651597880        5.0904977223        0.5175830554
  C         0.6189032729        6.1427141905        0.6039601303
  C         1.8570220583        6.3146966657        0.6887564003
  C         1.9082815430        3.8735676553        0.4236844458
  C         2.6199132584        2.6375702007        0.2796438935
  C         1.9075659903        1.3946046343        0.2563474056
  C         2.6307388693        0.1601591633        0.1494126145
  C         1.8098466012       -0.9699516117        0.1413250221
  C         2.6236443777        5.1108452471        0.4679934805
  C         4.7992969528        6.3399268309        0.3704467549
  C         4.0272343409        5.1242550867        0.3233287091
  C         4.7424108714        3.8952009760        0.1528682398
  C         4.0358008820        2.6482540987        0.1447758231
  C         4.7495226850        1.4144129066       -0.0052585055
  C         4.0334838698        0.1709855472        0.0085357431
  C         4.8524911318       -0.9507327153       -0.1404391689
  C         6.0852844872       -0.9454330216       -0.2544402502
  C         6.9044820759        0.1859916303       -0.2380390169
  C         6.1796031842        1.4191234545       -0.1236805703
  C         6.8967847899        2.6564984810       -0.0653240339
  C         6.1752195123        3.8877524016        0.0373891715
  C         6.9075558554        5.1262184632        0.0491467775
  C         6.0203825702        6.1801944915        0.1452163549
  C         9.1395590778        6.2626275237        0.1587016047
  C         8.3130820150        5.1415576760        0.0417015245
  C         9.0349625332        3.8981065316        0.0414764190
  C         8.3215209536        2.6600789751       -0.0537931105
  C         9.0373956137        1.4204600651       -0.0925681618
  C         8.3148024893        0.1880756440       -0.2266321643
  C         9.1366839650       -0.9409575432       -0.2431746774
  C        10.3693476978       -0.9513607424       -0.1243610182
  C        11.1880287346        0.1671929489        0.0451827975
  C        10.4667359934        1.4100693816        0.0428865626
  C        11.1770704396        2.6422387569        0.1990964584
  C        10.4658753166        3.8885859128        0.1853728469
  C        11.1846515852        5.1207891198        0.3429479703
  C        10.3693677194        6.2562757919        0.2984511416
 Na         3.2825501769        8.2870831583        1.2498969036
