     115
 i =       18, E =      -701.6634911317
  C         8.6291168641       14.9416054542       -0.0490284702
  C         9.8569044973       15.6588937796       -0.0484146919
  C        11.0857170962       14.9424939624       -0.0039283126
  C        12.3126544322       15.6588782235       -0.0116464137
  C        13.5375387054       14.9421445693        0.0173273617
  C        14.7691296839       15.6583866572       -0.0038250374
  C        15.9923604276       14.9398392659        0.0064751871
  C        17.2233287553       15.6570757033       -0.0108239082
  C        18.4503302482       14.9384828050       -0.0287521194
  C        19.6783793680       15.6554434973       -0.0436733301
  C        20.9063921335       14.9370248819       -0.0728921548
  C        22.1356021827       15.6554403272       -0.0824093500
  C        23.3618485890       14.9371954297       -0.0963611197
  C        24.5939693956       15.6560850891       -0.0972988955
  C        25.8186112942       14.9391728890       -0.0898061689
  C        27.0504035667       15.6575858389       -0.0823018784
  C        25.8115283391       13.5102440610       -0.0849872010
  C        23.3536632224       13.5120952124       -0.1001348921
  C        20.8975557286       13.5122368617       -0.0859132497
  C        18.4399722667       13.5086396294       -0.0424830093
  C        15.9811360299       13.5076604102        0.0268964895
  C        14.7602735574       12.7952997882        0.0884629078
  C        13.5268252988       13.5172809377        0.0944924984
  C        12.3024811702       12.8188807444        0.1714023536
  C        11.0828000800       13.5174202294        0.0756296438
  C         9.8440451208       12.7994041542        0.0550440987
  C         8.6245986098       13.5100481320       -0.0171851049
  C         7.3883443801       12.7922834463       -0.0563358812
  C        24.5815084810       12.7926574403       -0.0972777847
  C        22.1241702758       12.7937547842       -0.0991072988
  C        19.6664222543       12.7923183574       -0.0755489915
  C        17.2127601176       12.7905419380       -0.0163053058
  C        24.5711216182       11.3669411208       -0.0970368446
  C        23.3398262285       10.6474243594       -0.1023164483
  C        22.1143865919       11.3656474344       -0.1019119175
  C        20.8850712307       10.6469015268       -0.1004975736
  C        19.6574661860       11.3655130004       -0.0881118249
  C        18.4297688015       10.6476152808       -0.0770655440
  C        17.2025471418       11.3659870912       -0.0368051890
  C        15.9744547723       10.6460526654       -0.0028329787
  C        14.7454506509       11.3594689631        0.0853321119
  C        13.5354195333       10.6375146786        0.1741194364
  C        12.2929175866       11.3674041671        0.4986047858
  C        11.0487169405       10.6379550533        0.1413001454
  C         9.8394170332       11.3623931405        0.0509424809
  C         8.6044314350       10.6464298296       -0.0241965210
  C         7.3776266579       11.3674857527       -0.0592942922
  C         6.1485182335       10.6480364776       -0.0849719462
  C         6.1402949961        9.2199386927       -0.0840447747
  C         7.3634139523        8.4997579383       -0.0589793128
  C         8.5970941047        9.2195704593       -0.0263865419
  C         9.8221952087        8.5001693644        0.0066447965
  C        11.0542780739        9.2228912315        0.0824123755
  C        12.2847867349        8.4988264829        0.0998060639
  C        13.5147360933        9.2264398745        0.0958468725
  C        14.7396685393        8.5030723023        0.0050174317
  C        15.9668705107        9.2203279273       -0.0256141891
  C        17.1936710308        8.5015263922       -0.0724808879
  C        18.4220911320        9.2204904042       -0.0884870804
  C        19.6477026066        8.5033704647       -0.1019177324
  C        20.8773215491        9.2226073486       -0.1037926143
  C        22.1039391355        8.5039675448       -0.1049369093
  C        23.3320569393        9.2218267158       -0.1024754938
  C        22.0950150419        7.0767398156       -0.1042570027
  C        20.8647081601        6.3577061717       -0.1051444966
  C        19.6385318618        7.0761738639       -0.1043065415
  C        18.4105629292        6.3579509153       -0.1009108131
  C        17.1833683256        7.0773166443       -0.0852766209
  C        15.9547713162        6.3587401763       -0.0683689081
  C        14.7286384258        7.0773781611       -0.0233049792
  C        13.4998849847        6.3575959059        0.0030862636
  C        12.2739759818        7.0813042650        0.0450870084
  C        11.0406070387        6.3561043189        0.0200627354
  C         9.8144313949        7.0719994673        0.0006996961
  C         8.5843500834        6.3557463173       -0.0266412621
  C         7.3571972455        7.0751927341       -0.0564078133
  C         6.1279280276        6.3577743366       -0.0773693334
  C         4.9026096024        7.0775320548       -0.0941618434
  C         4.9107572422        8.5022011768       -0.0963559141
  C         3.6714643606        6.3586377791       -0.1000509504
  C         3.6638658504        4.9319969406       -0.0938935115
  C         4.8905519530        4.2138989795       -0.0777504380
  C         6.1206659662        4.9311321749       -0.0677433488
  C         7.3452193128        4.2133569266       -0.0387540377
  C         8.5770469984        4.9315437255       -0.0214341401
  C         9.8030544092        4.2137093150       -0.0079250199
  C        11.0333004000        4.9321559757        0.0025513096
  C        12.2607473341        4.2128756122       -0.0135210552
  C        13.4894123844        4.9334100656       -0.0245836723
  C        14.7157438249        4.2136988533       -0.0645530506
  C        15.9455982535        4.9322171414       -0.0807041685
  C        17.1712173876        4.2136398605       -0.0976652890
  C        18.4016259518        4.9325696242       -0.1020534967
  C        19.6275277240        4.2150298467       -0.1015752864
  C        20.8564226300        4.9333565082       -0.1019372899
  C        19.6189741691        2.7871428237       -0.0942606100
  C        18.3902397121        2.0685928684       -0.0952491792
  C        17.1622360271        2.7876761424       -0.0991483582
  C        15.9341749837        2.0697745719       -0.0955212814
  C        14.7069523417        2.7887745699       -0.0795553436
  C        13.4768317161        2.0696887199       -0.0673756135
  C        12.2522069357        2.7889928082       -0.0353884622
  C        11.0190958355        2.0680737524       -0.0274606149
  C         9.7947528000        2.7857149722       -0.0134689546
  C         8.5641947802        2.0675861356       -0.0140348151
  C         6.1093574863        2.0706114542       -0.0307427403
  C         7.3376318341        2.7869331538       -0.0260964553
  C         4.8824209539        2.7901441833       -0.0564962377
  C         3.6527155187        2.0734718894       -0.0532947606
  C         2.4278656648        2.7895111742       -0.0792134002
  C         2.4359407420        4.2151782651       -0.0948765973
  C         1.1968601642        2.0699871786       -0.0783750263
  O        12.2010855683       11.3429368791        2.1406204739
  H        13.0287563866       11.7403801333        2.4676969843
 Na        10.2755488800       10.4524455922        2.7318178594
