     114
 i =       35, E =      -654.5230174097
  C         8.6297830437       14.9374516518       -0.0504947812
  C         9.8563125669       15.6565947951       -0.0509382789
  C        11.0847947400       14.9400693012       -0.0018439427
  C        12.3111521190       15.6577473711       -0.0127944746
  C        13.5356939866       14.9410305434        0.0171875816
  C        14.7670706293       15.6573967208       -0.0070699880
  C        15.9906678083       14.9383029335        0.0028189740
  C        17.2211147095       15.6555191563       -0.0153063408
  C        18.4489743911       14.9368733382       -0.0331959472
  C        19.6769759877       15.6544543172       -0.0459741346
  C        20.9053692111       14.9360545264       -0.0739025110
  C        22.1350852946       15.6547634344       -0.0819027427
  C        23.3616890920       14.9359494363       -0.0976857384
  C        24.5940135818       15.6540424343       -0.0980803090
  C        25.8190944183       14.9361576783       -0.0923151033
  C        27.0510388821       15.6541561387       -0.0855390987
  C        25.8132512333       13.5071730487       -0.0885089838
  C        23.3538097175       13.5103322016       -0.1045645819
  C        20.8964076026       13.5109778101       -0.0900604765
  C        18.4379146103       13.5073764670       -0.0474906848
  C        15.9774299302       13.5051903447        0.0251919433
  C        14.7576479527       12.7929658061        0.0908422387
  C        13.5216893756       13.5156746429        0.1004158348
  C        12.2997627820       12.8194719588        0.1916940364
  C        11.0817499200       13.5153949403        0.0905168763
  C         9.8430642645       12.7930676337        0.0763264160
  C         8.6269865458       13.5051035358       -0.0109500112
  C         7.3894503668       12.7883143615       -0.0547236125
  C        24.5819420743       12.7904831463       -0.1032617902
  C        22.1238428850       12.7921446606       -0.1047109421
  C        19.6654672488       12.7910240318       -0.0806026887
  C        17.2108746897       12.7886619531       -0.0205227806
  C        24.5718289572       11.3651357596       -0.1044744920
  C        23.3404562486       10.6463736015       -0.1102335020
  C        22.1142617278       11.3646571032       -0.1091672232
  C        20.8845985297       10.6457654979       -0.1062917694
  C        19.6565815794       11.3642291796       -0.0927669704
  C        18.4285212740       10.6457082359       -0.0801847851
  C        17.2006853661       11.3637967298       -0.0401129412
  C        15.9728300616       10.6432647278       -0.0039592064
  C        14.7419989302       11.3553552893        0.0878191109
  C        13.5355496234       10.6334980847        0.1865698227
  C        12.2903615083       11.3636106584        0.5832113464
  C        11.0388003742       10.6323620159        0.1923626342
  C         9.8388292837       11.3553276784        0.0864484753
  C         8.6058824085       10.6428683247       -0.0117497793
  C         7.3801103769       11.3634457283       -0.0592082773
  C         6.1499970914       10.6460754218       -0.0907309312
  C         6.1410612699        9.2189365569       -0.0910700941
  C         7.3647935288        8.5000557735       -0.0665005005
  C         8.5969486313        9.2197275203       -0.0217671698
  C         9.8205369117        8.5021010992        0.0154742741
  C        11.0478409158        9.2254526311        0.1109487458
  C        12.2801555327        8.4993627993        0.1121958869
  C        13.5138920209        9.2255118041        0.1031115233
  C        14.7380902552        8.5016931935        0.0048703316
  C        15.9656528335        9.2186300194       -0.0261145234
  C        17.1929493904        8.4998653585       -0.0724450977
  C        18.4209701572        9.2189184552       -0.0897762629
  C        19.6472636218        8.5016816923       -0.1036617028
  C        20.8765946003        9.2210727632       -0.1076935312
  C        22.1037380635        8.5024399403       -0.1086195523
  C        23.3322306846        9.2205150834       -0.1089945979
  C        22.0943215927        7.0756945284       -0.1060056081
  C        20.8643316959        6.3563207364       -0.1052602993
  C        19.6379813465        7.0748112649       -0.1044071534
  C        18.4097668496        6.3560518369       -0.1006258654
  C        17.1826010421        7.0754740295       -0.0852344888
  C        15.9535854492        6.3568893546       -0.0689214526
  C        14.7272007715        7.0761020605       -0.0245832973
  C        13.4982817428        6.3583001275        0.0016314203
  C        12.2714938122        7.0845606182        0.0469819749
  C        11.0383472800        6.3578626760        0.0178877550
  C         9.8130540717        7.0751329350       -0.0034707504
  C         8.5840506408        6.3563315650       -0.0368541700
  C         7.3566923273        7.0753637965       -0.0661874897
  C         6.1279900761        6.3572347271       -0.0842642306
  C         4.9018291938        7.0765870878       -0.0984697223
  C         4.9111438212        8.5011173531       -0.1026109675
  C         3.6714223960        6.3577244314       -0.1010993526
  C         3.6631352404        4.9311878391       -0.0946670595
  C         4.8900557540        4.2132464816       -0.0808692296
  C         6.1199783173        4.9310989986       -0.0737557586
  C         7.3450856559        4.2132117949       -0.0475586529
  C         8.5761480226        4.9320939924       -0.0314959484
  C         9.8023038923        4.2136404987       -0.0144835882
  C        11.0316426446        4.9334942239       -0.0016573950
  C        12.2591718849        4.2129994202       -0.0148942963
  C        13.4883594098        4.9342235537       -0.0255041316
  C        14.7147512498        4.2131321561       -0.0638315487
  C        15.9448085746        4.9310596471       -0.0803951390
  C        17.1708773810        4.2117532596       -0.0973498077
  C        18.4008542468        4.9306181655       -0.1023772217
  C        19.6270880518        4.2127237441       -0.1033480114
  C        20.8555950652        4.9316787266       -0.1030474540
  C        19.6184268714        2.7852491569       -0.0974061514
  C        18.3900835302        2.0658941990       -0.0981091072
  C        17.1619717072        2.7856438472       -0.0997782365
  C        15.9335592275        2.0676289022       -0.0945542412
  C        14.7060308594        2.7874654965       -0.0772588483
  C        13.4760402512        2.0687041083       -0.0649922762
  C        12.2508534077        2.7889544624       -0.0345816738
  C        11.0181929856        2.0677509002       -0.0286403653
  C         9.7935420575        2.7859463379       -0.0183205940
  C         8.5630411442        2.0667613534       -0.0199299582
  C         6.1083124476        2.0692687055       -0.0355881765
  C         7.3365575677        2.7864116710       -0.0333144114
  C         4.8810736695        2.7891126073       -0.0602601587
  C         3.6519887869        2.0720435290       -0.0565562594
  C         2.4267997046        2.7880931476       -0.0821369275
  C         2.4353123583        4.2136011444       -0.0965202306
  C         1.1964499913        2.0677045585       -0.0825463927
  O        12.2260146442       11.3343497031        2.0826015151
  H        13.0456180599       11.7554301869        2.4026469475
