     113
 i =      229, E =      -681.6095897970
  C         8.6220110110       14.9348164266        0.0470950339
  C         9.8513222713       15.6543674364        0.0446039910
  C        11.0787789189       14.9362691439        0.0520944825
  C        12.3090856890       15.6545469621        0.0332650657
  C        13.5368925592       14.9364218454        0.0226079970
  C        14.7664573848       15.6541616577       -0.0185064068
  C        15.9928865362       14.9348883433       -0.0416965864
  C        17.2220395567       15.6533201693       -0.0707350772
  C        18.4481479737       14.9342963530       -0.1106806773
  C        19.6775360783       15.6528678812       -0.1254134587
  C        20.9041547808       14.9332617164       -0.1390274089
  C        22.1331168420       15.6531921046       -0.1192261237
  C        23.3597012553       14.9351569157       -0.0924191014
  C        24.5884434386       15.6534465622       -0.0468234349
  C        25.8150138067       14.9352767744       -0.0007306858
  C        27.0436280704       15.6539204791        0.0245533123
  C        25.8020205777       13.5080803536       -0.0019406952
  C        23.3483526193       13.5078640958       -0.0965944295
  C        20.8941293380       13.5073913092       -0.1473573542
  C        18.4385754323       13.5084528600       -0.1185513988
  C        15.9841757299       13.5095022649       -0.0336296077
  C        14.7553290881       12.7912969033        0.0148952411
  C        13.5279211016       13.5113081566        0.0409577920
  C        12.2968589778       12.7948132554        0.0632392264
  C        11.0678104293       13.5110836483        0.0637609764
  C         9.8375951458       12.7910858425        0.0640247943
  C         8.6099511253       13.5093708319        0.0540419852
  C         7.3807106816       12.7888778461        0.0333069488
  C        24.5738237128       12.7869493465       -0.0501797102
  C        22.1206693867       12.7872129861       -0.1328609569
  C        19.6649742265       12.7883265528       -0.1441042543
  C        17.2102086064       12.7893617742       -0.0755484921
  C        24.5630427458       11.3599744428       -0.0527943903
  C        23.3339506162       10.6369926050       -0.0927445921
  C        22.1103836612       11.3607331693       -0.1300862137
  C        20.8818769448       10.6421088135       -0.1424982706
  C        19.6559511106       11.3625864774       -0.1427912331
  C        18.4277897762       10.6433925714       -0.1172002389
  C        17.2025329516       11.3638375153       -0.0738984430
  C        15.9746721807       10.6440621238       -0.0289980893
  C        14.7500975818       11.3660284501        0.0200614031
  C        13.5199760227       10.6456666763        0.0482933670
  C        12.2882022624       11.3678057871        0.0654391479
  C        11.0542129009       10.6454421829        0.0663006867
  C         9.8252279120       11.3656706772        0.0640535553
  C         8.5973108457       10.6434407631        0.0471284502
  C         7.3703741062       11.3629730003        0.0272259552
  C         6.1424131056       10.6417675598       -0.0159159084
  C         6.1332612774        9.2163320547       -0.0259411850
  C         7.3598563482        8.4968162949       -0.0025280483
  C         8.5880537363        9.2170480164        0.0341875773
  C         9.8142357286        8.4956125436        0.0442999022
  C        11.0446688440        9.2151110582        0.0576720999
  C        12.2763325912        8.4937650857        0.0460226912
  C        13.5094504391        9.2153439616        0.0376126541
  C        14.7371300679        8.4951373969        0.0005117071
  C        15.9640849713        9.2176815171       -0.0330105391
  C        17.1900076579        8.4978307761       -0.0669878237
  C        18.4175027255        9.2178940158       -0.1075945662
  C        19.6436169909        8.4974461141       -0.1157217312
  C        20.8719152412        9.2164426791       -0.1275863149
  C        22.0974838716        8.4953885533       -0.1010198225
  C        23.3257033551        9.2137827864       -0.0825595474
  C        22.0901610375        7.0712379796       -0.0755918633
  C        20.8618774783        6.3525448868       -0.0693276687
  C        19.6353412785        7.0725391853       -0.0842050118
  C        18.4072272224        6.3529888709       -0.0638214670
  C        17.1805666584        7.0722873511       -0.0576023675
  C        15.9525429144        6.3519516651       -0.0419885736
  C        14.7256849193        7.0703586245       -0.0185007896
  C        13.4965862854        6.3507899733       -0.0107287317
  C        12.2683575409        7.0675044026        0.0228137810
  C        11.0380446031        6.3509281983        0.0098706383
  C         9.8100215551        7.0704322406        0.0186607728
  C         8.5811628544        6.3521207429       -0.0141543817
  C         7.3538826707        7.0716812953       -0.0214722456
  C         6.1251548753        6.3524982430       -0.0413714585
  C         4.8980306659        7.0714546153       -0.0511576536
  C         4.9053892847        8.4963559624       -0.0532832082
  C         3.6693076449        6.3523565442       -0.0569311020
  C         3.6601491338        4.9273796585       -0.0434814752
  C         4.8872103533        4.2085617977       -0.0392584488
  C         6.1164718384        4.9273245601       -0.0438603956
  C         7.3433690544        4.2083996083       -0.0444599436
  C         8.5726270977        4.9268719027       -0.0363317013
  C         9.7993767396        4.2077963486       -0.0453120038
  C        11.0288321301        4.9260387205       -0.0302843751
  C        12.2559462193        4.2075978037       -0.0503501681
  C        13.4856331391        4.9258956010       -0.0391016379
  C        14.7126525090        4.2076428748       -0.0508579150
  C        15.9415461164        4.9267762925       -0.0459706299
  C        17.1683341558        4.2082475842       -0.0426242333
  C        18.3968551612        4.9277182590       -0.0466830370
  C        19.6234720448        4.2086155758       -0.0346332525
  C        20.8521367711        4.9276214917       -0.0451658502
  C        19.6137627978        2.7837994998       -0.0037889092
  C        18.3853428074        2.0646931150       -0.0004982749
  C        17.1584730093        2.7832233182       -0.0304030545
  C        15.9298329295        2.0641280363       -0.0482823663
  C        14.7028959184        2.7827485455       -0.0662959650
  C        13.4741036634        2.0640562784       -0.0946088570
  C        12.2469344726        2.7827807672       -0.0851200768
  C        11.0180171830        2.0639335739       -0.0972966705
  C         9.7910335088        2.7827417001       -0.0695006124
  C         8.5619222620        2.0642378976       -0.0620977972
  C         6.1059301099        2.0648252639       -0.0318370770
  C         7.3350684124        2.7833063674       -0.0470153960
  C         4.8786472410        2.7835725127       -0.0231923031
  C         3.6495124310        2.0651516100        0.0054685732
  C         2.4218781636        2.7837253602       -0.0012241412
  C         2.4309733525        4.2085399577       -0.0325776676
  C         1.1928536472        2.0650381060        0.0181438975
 Na        12.2818688330       10.0314262018        2.6384099591
