     129
 i =       15, E =      -690.7486334442
  C         8.5985600000       14.9694200000        0.0497600000
  C         9.8261400000       15.6562900000        0.0582200000
  C        11.0528800000       14.9690000000        0.0546700000
  C        12.2831100000       15.6552600000        0.0447200000
  C        13.5056200000       14.9665400000        0.0169500000
  C        14.7397200000       15.6531600000       -0.0141800000
  C        15.9525700000       14.9605600000       -0.0503500000
  C        17.1950400000       15.6488200000       -0.0678900000
  C        18.3921800000       14.9670400000       -0.1096300000
  C        19.6511500000       15.7559300000       -0.1021800000
  C        20.9073500000       14.9665700000       -0.1331200000
  C        22.1055100000       15.6488500000       -0.1206300000
  C        23.3473600000       14.9612300000       -0.0984000000
  C        24.5604900000       15.6536000000       -0.0509000000
  C        25.7944600000       14.9676800000       -0.0107500000
  C        27.0172600000       15.6562200000        0.0323700000
  C        25.7894300000       13.5173500000       -0.0171500000
  C        23.3368500000       13.5160100000       -0.1041100000
  C        20.8797400000       13.5256500000       -0.1444200000
  C        18.4176400000       13.5256500000       -0.1306300000
  C        15.9612700000       13.5151700000       -0.0663600000
  C        14.7321500000       12.8021600000       -0.0344400000
  C        13.5088200000       13.5162900000        0.0088700000
  C        12.2781700000       12.8034300000        0.0341700000
  C        11.0530800000       13.5169200000        0.0518200000
  C         9.8240300000       12.8039400000        0.0537500000
  C         8.5963800000       13.5172700000        0.0463400000
  C         7.3701500000       12.8039700000        0.0213400000
  C        24.5648100000       12.8035200000       -0.0625700000
  C        22.1059400000       12.8073900000       -0.1343800000
  C        19.6479500000       12.8101600000       -0.1464500000
  C        17.1904900000       12.8068200000       -0.1097200000
  C        24.5610800000       11.3660200000       -0.0651200000
  C        23.3306400000       10.6526700000       -0.1041500000
  C        22.1028800000       11.3677400000       -0.1322100000
  C        20.8746200000       10.6542500000       -0.1369500000
  C        19.6461300000       11.3744000000       -0.1437900000
  C        18.4166700000       10.6538600000       -0.1300300000
  C        17.1893500000       11.3668400000       -0.1129200000
  C        15.9606700000       10.6505900000       -0.0779900000
  C        14.7316100000       11.3642900000       -0.0432200000
  C        13.5049800000       10.6496000000       -0.0127900000
  C        12.2767300000       11.3660600000        0.0248400000
  C        11.0496400000       10.6510100000        0.0374900000
  C         9.8220300000       11.3670000000        0.0477600000
  C         8.5931500000       10.6511900000        0.0355700000
  C         7.3673300000       11.3666200000        0.0166100000
  C         6.1376400000       10.6508000000       -0.0254200000
  C         6.1370600000        9.2160200000       -0.0278100000
  C         7.3644200000        8.5002400000       -0.0018800000
  C         8.5921900000        9.2153600000        0.0175000000
  C         9.8200300000        8.4999300000        0.0013900000
  C        11.0486900000        9.2153000000        0.0174900000
  C        12.2755300000        8.4998300000       -0.0016100000
  C        13.5043500000        9.2150600000       -0.0205100000
  C        14.7314800000        8.5001500000       -0.0477100000
  C        15.9597600000        9.2162300000       -0.0743900000
  C        17.1881500000        8.5005300000       -0.0914100000
  C        18.4160000000        9.2177400000       -0.1103500000
  C        19.6441400000        8.5004800000       -0.0936400000
  C        20.8735600000        9.2181200000       -0.1124900000
  C        22.1005700000        8.5013700000       -0.0927300000
  C        23.3326900000        9.2198600000       -0.0919700000
  C        22.0988400000        7.0660500000       -0.0625200000
  C        20.8712300000        6.3509900000       -0.0504900000
  C        19.6431300000        7.0667700000       -0.0629600000
  C        18.4139500000        6.3505400000       -0.0531900000
  C        17.1875300000        7.0650600000       -0.0647000000
  C        15.9578400000        6.3493200000       -0.0525200000
  C        14.7306500000        7.0640000000       -0.0477700000
  C        13.5021200000        6.3487500000       -0.0417400000
  C        12.2742800000        7.0640200000       -0.0283000000
  C        11.0462900000        6.3490400000       -0.0358700000
  C         9.8188900000        7.0644100000       -0.0266000000
  C         8.5902800000        6.3492600000       -0.0357000000
  C         7.3635200000        7.0644600000       -0.0281200000
  C         6.1344400000        6.3493400000       -0.0416200000
  C         4.9072600000        7.0649100000       -0.0495300000
  C         4.9097400000        8.5014900000       -0.0567500000
  C         3.6790700000        6.3500500000       -0.0501800000
  C         3.6769400000        4.9110000000       -0.0349500000
  C         4.9038100000        4.1984400000       -0.0361700000
  C         6.1323100000        4.9101000000       -0.0447200000
  C         7.3600700000        4.1974900000       -0.0471400000
  C         8.5883300000        4.9095100000       -0.0464400000
  C         9.8158000000        4.1968200000       -0.0486400000
  C        11.0447100000        4.9093200000       -0.0464600000
  C        12.2715700000        4.1971700000       -0.0479000000
  C        13.5007000000        4.9096200000       -0.0469300000
  C        14.7279200000        4.1978900000       -0.0452800000
  C        15.9562200000        4.9103700000       -0.0438500000
  C        17.1841900000        4.1984800000       -0.0298300000
  C        18.4122600000        4.9110900000       -0.0308800000
  C        19.6399200000        4.1988900000       -0.0099700000
  C        20.8691200000        4.9114600000       -0.0248600000
  C        19.6383700000        2.7476600000        0.0283000000
  C        18.4098400000        2.0608600000        0.0322600000
  C        17.1827200000        2.7467800000       -0.0073500000
  C        15.9544600000        2.0595100000       -0.0225600000
  C        14.7268400000        2.7459600000       -0.0407700000
  C        13.4986400000        2.0592300000       -0.0454300000
  C        12.2703400000        2.7453700000       -0.0485800000
  C        11.0423300000        2.0585600000       -0.0493100000
  C         9.8144500000        2.7450300000       -0.0502400000
  C         8.5856500000        2.0587100000       -0.0497400000
  C         6.1293900000        2.0596300000       -0.0359000000
  C         7.3585700000        2.7456800000       -0.0471400000
  C         4.9021700000        2.7465600000       -0.0209200000
  C         3.6742300000        2.0602300000        0.0182300000
  C         2.4461900000        2.7473300000        0.0211800000
  C         2.4476600000        4.1989000000       -0.0146200000
  C         1.2181900000        2.0612600000        0.0477000000
  H        27.0165000000       16.7424800000        0.0383200000
  H        24.5548900000       16.7398800000       -0.0430500000
  H        22.0824000000       16.7347700000       -0.1081200000
  H        17.2201900000       16.7346700000       -0.0468100000
  H        14.7469700000       16.7393900000       -0.0051600000
  H        12.2860100000       16.7415200000        0.0491400000
  H         9.8273200000       16.7425600000        0.0595000000
  H         1.2173100000        0.9753000000        0.0752600000
  H         3.6733800000        0.9741100000        0.0395000000
  H         6.1282700000        0.9732900000       -0.0300100000
  H         8.5845100000        0.9724000000       -0.0492200000
  H        11.0416100000        0.9722400000       -0.0491900000
  H        13.4980200000        0.9728800000       -0.0423400000
  H        15.9538800000        0.9732600000       -0.0091000000
  H        18.4091500000        0.9748600000        0.0584500000
  H        19.7240000000       17.0000000000       -0.0475500000
 Na        12.3453380841       15.9863143078        3.0101427565
