     113
 i =       71, E =      -653.8976183524
  C         8.6269339131       14.9364859298       -0.0853490959
  C         9.8567931184       15.6546121546       -0.0642488764
  C        11.0834185694       14.9355168648        0.0045529557
  C        12.3123618564       15.6571229103        0.0252909696
  C        13.5398779876       14.9409897981        0.0995683163
  C        14.7678069443       15.6592702474        0.0637809949
  C        15.9949224109       14.9460848574        0.0671502024
  C        17.2251267831       15.6601142222        0.0206448113
  C        18.4493244290       14.9386663504        0.0032269642
  C        19.6766600170       15.6541105349       -0.0270295290
  C        20.9062569065       14.9347036680       -0.0585665967
  C        22.1330198689       15.6520965390       -0.0726132908
  C        23.3614812528       14.9352246369       -0.0944133478
  C        24.5904662962       15.6548175700       -0.0988580461
  C        25.8180715245       14.9368852726       -0.1075951376
  C        27.0469128753       15.6560194796       -0.1048419553
  C        25.8091692968       13.5111610362       -0.1099439733
  C        23.3524591859       13.5102177142       -0.1040862211
  C        20.8959308869       13.5086365851       -0.0709054545
  C        18.4374589727       13.5072486265        0.0167233682
  C        15.9857812674       13.5224339776        0.1381490282
  C        14.7657556214       12.8338007161        0.2772789353
  C        13.5387247951       13.5173142249        0.2182969336
  C        12.2933851982       12.7850398945        0.2003372637
  C        11.0727510019       13.5107909468        0.0594499259
  C         9.8442444209       12.7931537708       -0.0059626208
  C         8.6173024833       13.5122635206       -0.0716613305
  C         7.3886713526       12.7926835983       -0.0973069018
  C        24.5804684909       12.7916018371       -0.1110454190
  C        22.1237059673       12.7907712490       -0.0966999482
  C        19.6686791326       12.7889518084       -0.0378905529
  C        17.2182673367       12.7938608119        0.0981460801
  C        24.5701334318       11.3660398430       -0.1110591231
  C        23.3416513612       10.6462517395       -0.1103493624
  C        22.1143697703       11.3644885563       -0.1029298141
  C        20.8867415515       10.6451746842       -0.0894773638
  C        19.6601629621       11.3648475085       -0.0505790174
  C        18.4340023619       10.6438934853        0.0045009667
  C        17.2099574597       11.3614240744        0.1066072099
  C        16.0079529735       10.6347514346        0.2568821536
  C        14.7887784835       11.3895762654        0.5526441396
  C        13.4770390670       10.6235746639        0.5552921648
  C        12.2568227896       11.3778940245        0.2607930423
  C        11.0544681481       10.6508972783        0.1084563823
  C         9.8302433352       11.3682092772        0.0029720254
  C         8.6039558957       10.6473864274       -0.0542179790
  C         7.3771776295       11.3670541699       -0.0926227371
  C         6.1494647950       10.6478029467       -0.1051464971
  C         6.1414371486        9.2219498787       -0.1009465203
  C         7.3693387703        8.5042423711       -0.0789336291
  C         8.5965635922        9.2236298630       -0.0439915905
  C         9.8279080482        8.5056917975        0.0119561461
  C        11.0469924509        9.2189382833        0.0983751520
  C        12.2793029117        8.4901376376        0.1403229629
  C        13.4993164555        9.1788272548        0.2807038040
  C        14.7262043546        8.4952776323        0.2223842777
  C        15.9715188168        9.2274939370        0.2017529143
  C        17.1924324319        8.5018069858        0.0647864438
  C        18.4209238809        9.2194764446       -0.0020754312
  C        19.6478970779        8.5004698279       -0.0664066451
  C        20.8764419123        9.2200221832       -0.0942053546
  C        22.1039486773        8.5016993960       -0.1084004843
  C        23.3325993419        9.2211249426       -0.1109940877
  C        22.0938625399        7.0755764618       -0.1078684416
  C        20.8648420267        6.3561345894       -0.1025669876
  C        19.6370212739        7.0758996425       -0.0794118273
  C        18.4070499810        6.3574253529       -0.0559070455
  C        17.1805994131        7.0766952541        0.0133649280
  C        15.9515350621        6.3546751781        0.0357026824
  C        14.7239052254        7.0709006004        0.1073013247
  C        13.4958180377        6.3526508279        0.0700850270
  C        12.2688492970        7.0660931746        0.0692953446
  C        11.0386068715        6.3520388496        0.0185583950
  C         9.8147267373        7.0738724099       -0.0031522310
  C         8.5873382305        6.3581723214       -0.0382152020
  C         7.3578843990        7.0778200160       -0.0700956645
  C         6.1308967852        6.3601483978       -0.0837660273
  C         4.9025320783        7.0773692739       -0.1012166363
  C         4.9127044277        8.5027544315       -0.1075528465
  C         3.6733479761        6.3573873372       -0.1040193125
  C         3.6638189447        4.9316537955       -0.0914422191
  C         4.8922450208        4.2139224805       -0.0658785647
  C         6.1205984583        4.9320518539       -0.0642040275
  C         7.3467504885        4.2145898671       -0.0360246513
  C         8.5770013581        4.9324535114       -0.0286843919
  C         9.8025943254        4.2129666695       -0.0108907678
  C        11.0302673145        4.9281819740        0.0005968727
  C        12.2593054147        4.2088910015       -0.0027405634
  C        13.4869404484        4.9247767993        0.0157579138
  C        14.7132765053        4.2096716196       -0.0157803027
  C        15.9427194647        4.9313968753       -0.0181802641
  C        17.1696078970        4.2124776513       -0.0673290702
  C        18.3983183783        4.9315848864       -0.0806488820
  C        19.6266135167        4.2122538338       -0.1010412189
  C        20.8553682561        4.9308820126       -0.1035982322
  C        19.6174829400        2.7861873928       -0.1028565144
  C        18.3885522294        2.0671694423       -0.1035271595
  C        17.1597522335        2.7865526121       -0.0895811813
  C        15.9320571169        2.0663535015       -0.0835196125
  C        14.7038073514        2.7843309056       -0.0537545837
  C        13.4752978429        2.0659407208       -0.0513281065
  C        12.2493074798        2.7837765576       -0.0254105300
  C        11.0189031601        2.0656107528       -0.0195057225
  C         9.7934881697        2.7855427721       -0.0085033349
  C         8.5656864746        2.0699682904        0.0005577471
  C         6.1090586117        2.0732842871        0.0073785341
  C         7.3368417474        2.7895822397       -0.0089445633
  C         4.8829548827        2.7886097009       -0.0274469890
  C         3.6533751861        2.0663800057       -0.0297567488
  C         2.4266019179        2.7857931451       -0.0758835469
  C         2.4363201642        4.2118418802       -0.0949611630
  C         1.1976499936        2.0664125812       -0.0869042164
  O        14.1370883404       11.0067787673        1.8052930980
