     193
 i =      146, E =     -1140.4812971436
  C        -0.1483355013        0.0011357850       -0.0859486994
  C        15.9124627762        2.8635069515       -2.4672965176
  C        15.2624913027        2.1508579183       -1.4199711374
  C        16.6481812903        2.1492584411       -3.4553795978
  C        17.4960551798        2.8601116624       -4.3524175338
  C        18.4881634388        2.1465192092       -5.0856458909
  C        19.5943573283        2.8593600906       -5.6330594538
  C        20.7939831344        2.1483661384       -5.9280127462
  C        23.2427901743        2.1501524347       -5.7777529405
  C        22.0250679570        2.8631130877       -5.9793342730
  C        26.4267795999        2.8643794570       -3.9585449176
  C        24.3977551510        2.8643801354       -5.3464418466
  C        25.4638794598        2.1507447682       -4.7280450311
  C        28.7747389573        2.1510135875       -1.1152151035
  C        27.2893530426        2.1508666173       -3.0793631257
  C        28.0640213092        2.8642012220       -2.1215005167
  C        28.7738975335        0.7141081564       -1.1149893301
  C        17.5092439648       11.4648005895       -4.3334676074
  C        15.9138984153       11.4643433628       -2.4630574391
  C        14.6540728485       11.4640749808       -0.3484840336
  C        13.4060436418       11.4643266451        1.7738850328
  C        11.8371749098       11.4646196873        3.6671497989
  C        10.8767232390       10.7507209787        4.4387921753
  C         9.7980755147       11.4648063107        5.0349150032
  C         8.6239829316       10.7506115631        5.4106678352
  C         7.3986324253       11.4649669040        5.5402933950
  C         6.1722216135       10.7506195062        5.4207516529
  C         4.9928584814       11.4647283147        5.0620054468
  C         3.8983133852       10.7508330955        4.4950847813
  C        16.6520052035       10.7517379899       -3.4497139616
  C        15.2611034992       10.7508523656       -1.4195244055
  C        14.0524581628       10.7508239664        0.7259248759
  C        12.6760638887       10.7507581978        2.7656391035
  C        16.6485519603        9.3156325989       -3.4546661583
  C        15.9123403202        8.6015400488       -2.4671197524
  C        15.2622280993        9.3141711311       -1.4199272027
  C        14.6570708160        8.6007240222       -0.3478219164
  C        14.0535931270        9.3139821661        0.7261703920
  C        13.4064553559        8.6007067746        1.7738660505
  C        12.6759116863        9.3143468368        2.7653689469
  C        11.8368736525        8.6007106821        3.6667791592
  C        10.8765615052        9.3146535875        4.4385648043
  C         9.7982172978        8.6006942818        5.0352953347
  C         8.6241117840        9.3149717584        5.4108040545
  C         7.3988020551        8.6006463344        5.5402159350
  C         6.1723784397        9.3148409378        5.4203294789
  C         4.9931627492        8.6007424636        5.0613124684
  C         3.8984119174        9.3146034022        4.4949836986
  C         2.9102532366        8.6008652166        3.7586908209
  C         2.9102889520        7.1645831011        3.7586041201
  C         3.8986546732        6.4507949253        4.4944935062
  C         4.9933292583        7.1647522616        5.0610347683
  C         6.1724494182        6.4506960454        5.4203754097
  C         7.3988211546        7.1650270409        5.5404484630
  C         8.6243210615        6.4506301132        5.4119785412
  C         9.7982847174        7.1648584628        5.0358129624
  C        10.8765621103        6.4507263411        4.4387876180
  C        11.8366655921        7.1645662952        3.6666514634
  C        12.6755640900        6.4508135714        2.7649162701
  C        13.4068554046        7.1642518343        1.7738128063
  C        14.0558544064        6.4509174845        0.7268634538
  C        14.6588011639        7.1640350918       -0.3476149759
  C        15.2645652425        6.4508566240       -1.4206746145
  C        15.9115780319        7.1648307186       -2.4694269759
  C        15.2647359803        5.0141903417       -1.4206048081
  C        14.6593549616        4.3010342289       -0.3473985747
  C        14.0559636542        5.0142952883        0.7268022388
  C        13.4068955589        4.3010408708        1.7737489874
  C        12.6757003929        5.0145822395        2.7648722950
  C        11.8365826829        4.3009386136        3.6664235025
  C        10.8766008865        5.0147208515        4.4387815608
  C         9.7982915178        4.3006884441        5.0357262282
  C         8.6243195216        5.0149161032        5.4118761987
  C         7.3988274216        4.3006061818        5.5406636227
  C         6.1725065904        5.0148680142        5.4200934317
  C         4.9932914163        4.3007605422        5.0610954761
  C         3.8986000184        5.0145907232        4.4945579209
  C         2.9103255737        4.3008204688        3.7584763310
  C         2.0299081737        5.0143986998        2.8968243651
  C         2.0299436085        6.4509399752        2.8968476101
  C         1.2453425138        4.3009751823        1.9468977176
  C         1.2452137995        2.8642167781        1.9469679069
  C         2.0300369607        2.1508616665        2.8967202424
  C         2.9102529003        2.8645285567        3.7586338254
  C         3.8984455628        2.1507610558        4.4948239620
  C         4.9931706460        2.8647478909        5.0612255361
  C         6.1723935890        2.1506541774        5.4201635756
  C         7.3987915888        2.8649766591        5.5400454909
  C         8.6241248921        2.1505654095        5.4109237589
  C         9.7981969463        2.8648488283        5.0352716055
  C        10.8766243382        2.1508140829        4.4386023303
  C        11.8368318122        2.8647920512        3.6667369611
  C        12.6758629712        2.1510445885        2.7652747745
  C        13.4066072613        2.8646010573        1.7738959430
  C        14.0538539561        2.1511768989        0.7262438490
  C        14.6574721019        2.8643268426       -0.3477287593
  C        14.0526176934        0.7142500373        0.7259114802
  C        13.4060601122        0.0009677773        1.7738717324
  C        12.6760858841        0.7145746780        2.7656071381
  C        11.8372543094        0.0007943963        3.6672347003
  C        10.8767286967        0.7147432327        4.4388320794
  C         9.7981551906        0.0006719917        5.0350125852
  C         8.6240402119        0.7149088753        5.4108305800
  C         7.3986871552        0.0005988213        5.5401686611
  C         6.1722099082        0.7148951549        5.4207386869
  C         4.9929450348        0.0007356383        5.0618557874
  C         2.9101858655        0.0007550069        3.7586884223
  C         3.8983494762        0.7145350833        4.4949798196
  C         2.0301218220        0.7142978677        2.8964997518
  C         1.2451236367        0.0009861129        1.9467667637
  C         0.5313103622        0.7141239957        0.9421813072
  C         0.5316668051        2.1510543711        0.9421743333
  C        27.2893453609        0.7142830480       -3.0798571635
  C        29.4527609485        2.8641436545       -0.0863129994
  C        26.4280580192        0.0008988652       -3.9604770179
  C        15.9115224692        4.3001601438       -2.4695517472
  C        28.0630377794        0.0009665064       -2.1214372111
  C        24.4011441384        0.0007364341       -5.3512183483
  C        25.4650728121        0.7142768893       -4.7297138926
  C        23.2444480870        0.7141630922       -5.7796286502
  C        22.0282871241        0.0001708378       -5.9793571565
  C        20.7966267881        0.7130534204       -5.9236269471
  C        19.6035351440       -0.0003894315       -5.6154398002
  C        17.5091784919       -0.0002049060       -4.3336871622
  C        18.4953056878        0.7118711487       -5.0740068769
  C        15.9139197101        0.0007030184       -2.4631455299
  C        15.2612238847        0.7141151313       -1.4195548777
  C        16.6519602255        0.7130813381       -3.4499588037
  C        32.5102293159       11.4645688316        3.7585856634
  C        30.8451506377       11.4642873184        1.9467192399
  C        29.4515116844       11.4641424840       -0.0858798113
  C        28.0629906027       11.4642478406       -2.1214241613
  C        26.4282656453       11.4643432030       -3.9607243788
  C        25.4652373798       10.7508957113       -4.7299507201
  C        24.4012295657       11.4644450474       -5.3513267944
  C        23.2446490905       10.7508633154       -5.7798250419
  C        22.0284054480       11.4648557557       -5.9793037963
  C        20.7968740889       10.7518714378       -5.9232449219
  C        19.6037251514       11.4652907827       -5.6151289718
  C        18.4955959001       10.7528127304       -5.0734718540
  C        31.6301127135       10.7509427237        2.8964800722
  C        30.1313674689       10.7511380574        0.9421216773
  C        28.7739150545       10.7511037866       -1.1150099206
  C        27.2893578701       10.7509306009       -3.0799397071
  C        31.6300861743        9.3144153384        2.8967175917
  C        30.8451945541        8.6010735870        1.9470009725
  C        30.1316211895        9.3142069321        0.9421701995
  C        29.4528008970        8.6011887217       -0.0863431208
  C        28.7747014557        9.3142108206       -1.1152077629
  C        28.0640302936        8.6010500757       -2.1215634338
  C        27.2895115537        9.3143501130       -3.0795540627
  C        26.4269379381        8.6008682603       -3.9586962962
  C        25.4641167857        9.3143864770       -4.7282908260
  C        24.3980541565        8.6008154651       -5.3467395008
  C        23.2430255053        9.3149226595       -5.7779080206
  C        22.0253694922        8.6019169577       -5.9789932807
  C        20.7943925925        9.3166041117       -5.9271413962
  C        19.5952541344        8.6055743738       -5.6308859970
  C        18.4889444256        9.3182385531       -5.0840508785
  C        17.4970569985        8.6046338911       -4.3508112903
  C        17.4818210290        7.1677700030       -4.3696268546
  C        18.4552880558        6.4545121747       -5.1379516958
  C        19.5844194243        7.1688539559       -5.6541375260
  C        20.7871987764        6.4528848666       -5.9453613334
  C        22.0235692357        7.1660901022       -5.9797223932
  C        23.2389163888        6.4507151077       -5.7719809680
  C        24.3960793622        7.1645984224       -5.3432688918
  C        25.4610337094        6.4506736766       -4.7234126202
  C        26.4262800602        7.1645221033       -3.9571350546
  C        27.2894262859        6.4508724355       -3.0786450508
  C        28.0646052023        7.1644143642       -2.1215111026
  C        28.7758400243        6.4511081545       -1.1155569246
  C        29.4532942655        7.1642617923       -0.0864563539
  C        30.1321229612        6.4511488923        0.9421196074
  C        30.8452682117        7.1643355912        1.9469925935
  C        30.1320567607        5.0141623483        0.9421079916
  C        29.4532499073        4.3010967229       -0.0864378578
  C        28.7758569702        5.0141954404       -1.1155741618
  C        28.0644883981        4.3008361468       -2.1213928999
  C        27.2893913172        5.0143791817       -3.0786120568
  C        26.4263700287        4.3007302570       -3.9572217577
  C        25.4609810308        5.0145390713       -4.7233194878
  C        24.3959561633        4.3006104584       -5.3431140451
  C        23.2388282012        5.0143765044       -5.7719641868
  C        22.0234464237        4.2989711601       -5.9797367730
  C        20.7869721722        5.0123322078       -5.9463079594
  C        19.5832707542        4.2962623855       -5.6569956238
  C        18.4534370240        5.0105432935       -5.1405761779
  C        17.4802040977        4.2972084546       -4.3716006411
  C        16.6364553559        5.0130366014       -3.4695927199
  C        16.6366862440        6.4519477357       -3.4692780584
  C        14.6540501201        0.0009693679       -0.3485107768
 Na        20.0267598054        5.6855524383       -3.2339240660
