      93
 i =      342, E =      -585.5027096436
  C         0.3373835985       -1.7678680713        0.6395383440
  C         4.6223074699       -9.1319877062       -0.4081458106
  C         7.4712471630       -9.1045083969       -0.6919164336
  C         0.3339714401      -11.6265083124       -0.2066105779
  C         5.4283104544       -0.5744094101        0.7380524007
  C         6.8194060852       -0.5818196742        0.6600904976
  C         7.5053171117       -1.7915296670        0.3654074426
  C         3.2059982191       -6.6796390622       -0.0229760970
  C         2.3982949214      -12.7370728962       -0.3876600048
  C         6.6467366599      -12.6649186888       -1.1314383057
  C         3.2070654098       -9.1446393645       -0.2549647780
  C         6.7508601098      -10.3284345125       -0.8202942375
  C         4.6311635978       -6.6757333827       -0.1271221683
  C         2.4981664573       -5.4539456270        0.1467185327
  C         6.7572168020       -7.8856218154       -0.4612978941
  C         1.0729503577       -5.4537671394        0.1742521450
  C         5.4243965294      -12.6891569023       -0.9322390389
  C         2.4927755479       -7.9127110301       -0.0970021766
  C         5.3374071678       -7.8946941236       -0.3410496713
  C         5.3317093009      -10.3480143087       -0.6395064033
  C         6.7862824144       -3.0062787556        0.2156718286
  C         5.3690966422       -3.0024641379        0.3189969689
  C         4.6941687678       -1.7719595947        0.5610179486
  C         3.2726120521       -1.7727494676        0.6269058727
  C         2.4465023703       -0.6551478603        0.8269328594
  C         1.2047405083       -0.6914116219        0.8155857842
  C         1.1645877938      -12.7468324060       -0.2784627893
  C         0.3607728202       -6.6822871034        0.0545799053
  C         7.4785024962      -11.5443033182       -1.0769974270
  C         1.0702640173       -7.9149521725       -0.0420593325
  C         0.3525104087       -9.1545660870       -0.1111429162
  C         7.4866178259       -4.2249179854       -0.0023980920
  C         1.0680397195      -10.3872567505       -0.1709802824
  C         2.4943340266      -10.3812363108       -0.2673974343
  C         3.2244847739      -11.6121047771       -0.4314807557
  C         4.6051223415      -11.5915411853       -0.6610712345
  C         0.3599472709       -4.2182162068        0.3058376454
  C         7.4733801681       -6.6635120031       -0.3342032327
  C         6.7657147785       -5.4477157062       -0.1264632915
  C         5.3449941126       -5.4496541841       -0.0273533229
  C         4.6402411340       -4.2243615661        0.1886946890
  C         3.2212167038       -4.2228303203        0.2696618226
  C         2.5185953040       -2.9919183341        0.4659903281
  C         1.0816730968       -2.9943275553        0.4775843820
  C         8.9183421884       -1.7783784161        0.2896260687
  C        13.1707897322       -9.1279374454       -0.4508867933
  C        16.0165674456       -9.1512218495       -0.1642723716
  C         8.8769490991      -11.5362913629       -1.1461585478
  C        13.9400156118       -0.6564721408        0.5557505579
  C        15.1828659722       -0.6274634281        0.6605606900
  C        16.0158581017       -1.7528186499        0.5703190245
  C        11.7522450698       -6.6643531237       -0.2935952057
  C        10.9433769853      -12.6577371764       -1.1944355091
  C        15.1935347677      -12.7332473757       -0.4515764819
  C        11.7550455194       -9.1147491672       -0.6009762416
  C        15.2971384965      -10.3787147619       -0.2902543276
  C        13.1777995946       -6.6693859409       -0.1917263421
  C        11.0405610197       -5.4393422689       -0.1825231398
  C        15.3052524307       -7.9083023754       -0.1342110010
  C         9.6169487749       -5.4414836342       -0.2154150233
  C        13.9716028073      -12.7182339620       -0.6538898180
  C        11.0388456747       -7.8811810854       -0.4922369981
  C        13.8862709817       -7.9013555139       -0.2549307091
  C        13.8790515660      -10.3649992327       -0.4737623452
  C        15.2982714777       -2.9857764074        0.3665323678
  C        13.8688168382       -2.9869312038        0.2681844708
  C        13.1144089093       -1.7655494817        0.3565028789
  C        11.7003103498       -1.7393560120        0.2834595729
  C        11.0199306641       -0.5096661068        0.4402607053
  C         9.6573886760       -0.5807149651        0.4688017882
  C         9.7093103913      -12.6478534335       -1.3001727256
  C         8.9023546356       -6.6593855363       -0.3766631505
  C        16.0230164622      -11.6218587095       -0.2803908876
  C         9.6145847549       -7.8781507862       -0.5482374966
  C         8.8948694143       -9.0994254238       -0.7410183583
  C        16.0216137085       -4.2144309208        0.2591269625
  C         9.6118355094      -10.3164210410       -0.9338675733
  C        11.0398417250      -10.3264622508       -0.8411402064
  C        11.7709162077      -11.5636781470       -0.9302232456
  C        13.1521358019      -11.5880553516       -0.7021225153
  C         8.9029105651       -4.2178902012       -0.0537307999
  C        16.0180888789       -6.6799551527        0.0094956547
  C        15.3085263693       -5.4484196521        0.0867166483
  C        13.8862475773       -5.4472840260       -0.0069564766
  C        13.1682763481       -4.2154319571        0.0788820190
  C        11.7511511196       -4.2125059695       -0.0058591506
  C        11.0313363072       -2.9876017967        0.1078428784
  C         9.6154693353       -2.9976469008        0.0941536624
  O         8.9412652649        0.6100911203        0.7823491662
  O         7.1147537108        1.5998827260        1.5795167602
  H         4.8844483303        0.3609091396        0.8864904274
  C         7.6080277766        0.6140048404        0.9995169579
 Na         6.3120365662        0.5159572566        3.3798776123
