      43
 i =        2, E =      -285.0087301847
  C         0.6945600000       -1.1755000000       -0.0010800000
  C         0.0000000000        0.0000000000        0.0000000000
  C         0.6043900000        1.2777600000       -0.0122800000
  C         0.0542900000        2.5303200000       -0.0218400000
  C         0.5898300000        3.7914600000       -0.0695300000
  C        -0.0263400000        5.0600100000       -0.0967600000
  C         0.6627600000        6.2401100000       -0.1592800000
  C         2.0691200000        6.2302100000       -0.1883500000
  C         2.0923100000        3.7858100000       -0.0959900000
  C         2.8021500000        2.5442700000       -0.0665400000
  C         2.1074400000        1.2974800000       -0.0260400000
  C         2.8183800000        0.0544800000       -0.0097400000
  C         2.1038800000       -1.1550700000        0.0004600000
  C         2.7957100000        5.0281900000       -0.1569500000
  C         4.9759400000        6.2148800000       -0.2416700000
  C         4.2654700000        5.0297700000       -0.1765400000
  C         4.9830900000        3.7763200000       -0.1237900000
  C         4.2641400000        2.5578400000       -0.0785900000
  C         4.9872800000        1.3071100000       -0.0436400000
  C         4.2788800000        0.0737200000       -0.0124100000
  C         5.0217600000       -1.1332300000        0.0087300000
  C         6.3964300000       -1.1402600000        0.0093000000
  C         7.1390000000        0.0665100000       -0.0089900000
  C         6.4305000000        1.3076600000       -0.0427000000
  C         7.1586400000        2.5525300000       -0.0768200000
  C         6.4370400000        3.8010900000       -0.1241300000
  C         7.1556800000        5.0347100000       -0.1656800000
  C         6.3990800000        6.3189600000       -0.2256400000
  C         9.3447000000        6.2396000000       -0.1595600000
  C         8.6029300000        5.0257200000       -0.1436400000
  C         9.3096200000        3.7805700000       -0.0929400000
  C         8.6022600000        2.5388200000       -0.0671800000
  C         9.3024000000        1.2827200000       -0.0314900000
  C         8.5920600000        0.0495800000       -0.0054000000
  C         9.3130200000       -1.1706400000        0.0143900000
  C        10.7123800000       -1.1825900000        0.0152600000
  C        11.4173300000        0.0000000000        0.0000000000
  C        10.7927000000        1.2674000000       -0.0266800000
  C        11.3609500000        2.5224900000       -0.0461200000
  C        10.8106200000        3.7811100000       -0.0694800000
  C        11.4212100000        5.0498800000       -0.0797700000
  C        10.7454800000        6.2410100000       -0.1178600000
 Na         2.0869900000        6.3197100000        2.4992800000
