     193
 i =       86, E =     -1140.4793708447
  C        -0.0006109124       -0.0031755886       -0.0948376882
  C        16.1256125413        2.8586527721       -2.1749963015
  C        15.4432937451        2.1441364074       -1.1507862579
  C        16.8814876366        2.1453415996       -3.1464540291
  C        17.7397847299        2.8597835238       -4.0292587607
  C        18.7136689919        2.1457413775       -4.7816741693
  C        19.8020084284        2.8603959402       -5.3577685949
  C        20.9793083049        2.1460246793       -5.7202471516
  C        23.4298911521        2.1463099471       -5.7180471342
  C        22.2046293007        2.8607072611       -5.8428185356
  C        26.6738949311        2.8607166999       -4.0316841769
  C        24.6070768646        2.8608538565       -5.3549009066
  C        25.6970730986        2.1465576366       -4.7811850070
  C        28.9627507126        2.1468117421       -1.1477390200
  C        27.5341465499        2.1468234916       -3.1505187113
  C        28.2874897616        2.8604879068       -2.1764626517
  C        28.9626925031        0.7102712317       -1.1476805191
  C        17.7394647244       11.4597508937       -4.0280245692
  C        16.1266196645       11.4588337692       -2.1717587880
  C        14.7988694026       11.4581981992       -0.0988620449
  C        13.4579372388       11.4574048467        1.9676170425
  C        11.8416195349       11.4578091850        3.8267019142
  C        10.8707121251       10.7448211303        4.5872108497
  C         9.7858769485       11.4579616157        5.1727507593
  C         8.6103748507       10.7445374620        5.5441054928
  C         7.3849948560       11.4584683679        5.6713498210
  C         6.1596616065       10.7445531435        5.5431304056
  C         4.9846553238       11.4590503240        5.1741063067
  C         3.8970709899       10.7450525637        4.5958420110
  C        16.8818227020       10.7456728681       -3.1445504056
  C        15.4455230413       10.7453529883       -1.1464867546
  C        14.1478685326       10.7454753724        0.9463328093
  C        12.6970594668       10.7451977609        2.9379761915
  C        16.8818108988        9.3093792660       -3.1451197426
  C        16.1264716910        8.5958271419       -2.1730577646
  C        15.4451751716        9.3090523159       -1.1476291249
  C        14.7961868511        8.5961405280       -0.1023034257
  C        14.1456749824        9.3094088491        0.9431325502
  C        13.4489754221        8.5972427155        1.9586304605
  C        12.6928093352        9.3090520160        2.9333861567
  C        11.8354208485        8.5977480046        3.8207487863
  C        10.8684646667        9.3092575863        4.5865785757
  C         9.7830996481        8.5959367165        5.1725370259
  C         8.6092935430        9.3094563907        5.5459626466
  C         7.3836456198        8.5951178471        5.6745008990
  C         6.1588980670        9.3092229985        5.5448246616
  C         4.9835432203        8.5951309003        5.1758414425
  C         3.8966775309        9.3091979140        4.5963431321
  C         2.9215919298        8.5955996740        3.8444450160
  C         2.9211305914        7.1595640319        3.8449311827
  C         3.8947957088        6.4451689201        4.5986178713
  C         4.9818922947        7.1594548981        5.1780450160
  C         6.1554810900        6.4446447885        5.5507778778
  C         7.3809023221        7.1596845191        5.6787533577
  C         8.6043218732        6.4443163366        5.5488739766
  C         9.7766826390        7.1605415742        5.1722676590
  C        10.8471128047        6.4447891823        4.5672884265
  C        11.8188872473        7.1606985971        3.8046118859
  C        12.6582103175        6.4469003003        2.8956864127
  C        13.4377440871        7.1614080360        1.9429615327
  C        14.1304318881        6.4452562774        0.9270713609
  C        14.7932529687        7.1596712070       -0.1076651244
  C        15.4427273021        6.4453072087       -1.1526207092
  C        16.1262083434        7.1593757109       -2.1750239395
  C        15.4424831571        5.0087071086       -1.1540275177
  C        14.7904387240        4.2938677315       -0.1119001011
  C        14.1268653694        5.0079115581        0.9217660180
  C        13.4208855409        4.2899635511        1.9255001950
  C        12.6396167142        5.0046849728        2.8752439394
  C        11.7919170737        4.2881483135        3.7758334085
  C        10.8382399994        5.0068006198        4.5583562332
  C         9.7705818376        4.2908816944        5.1673040232
  C         8.6024895554        5.0083124730        5.5501592392
  C         7.3790165949        4.2934502195        5.6822394798
  C         6.1544110185        5.0089386278        5.5526263557
  C         4.9805044837        4.2947953034        5.1802665235
  C         3.8943749910        5.0092487941        4.5992461271
  C         2.9205196596        4.2956702592        3.8455965430
  C         2.0626721062        5.0096154660        2.9621700013
  C         2.0626920063        6.4459232161        2.9620069092
  C         1.3106530436        4.2964221920        1.9870740907
  C         1.3108815252        2.8599764809        1.9869702620
  C         2.0628007493        2.1459759328        2.9619878441
  C         2.9209691418        2.8595912150        3.8452409614
  C         3.8952959365        2.1450303531        4.5980467595
  C         4.9816161452        2.8589626095        5.1788894132
  C         6.1564821894        2.1436804907        5.5486699447
  C         7.3810520149        2.8577848655        5.6787464365
  C         8.6056509524        2.1416708951        5.5468909522
  C         9.7757104689        2.8556877679        5.1658755877
  C        10.8564462388        2.1405613974        4.5742795508
  C        11.8129182674        2.8512086694        3.7961752902
  C        12.6761278273        2.1404419425        2.9154264441
  C        13.4318724238        2.8538274104        1.9419424991
  C        14.1379594024        2.1417186996        0.9345181370
  C        14.7918478505        2.8571235312       -0.1076817682
  C        14.1440269285        0.7056360325        0.9424222361
  C        13.4551696420       -0.0066673727        1.9644131800
  C        12.6898305575        0.7049679436        2.9303278210
  C        11.8381771781       -0.0064985030        3.8230559190
  C        10.8654104356        0.7056789966        4.5817505452
  C         9.7841943484       -0.0069878870        5.1720909079
  C         8.6086845206        0.7064831531        5.5443576284
  C         7.3840135154       -0.0066447651        5.6725701464
  C         6.1585557674        0.7081006512        5.5452979033
  C         4.9839791002       -0.0053295459        5.1750449592
  C         2.9219325593       -0.0043778477        3.8442058677
  C         3.8964048355        0.7090950165        4.5968272059
  C         2.0632100353        0.7096336595        2.9617544971
  C         1.3108663018       -0.0035810080        1.9869293531
  C         0.6362130713        0.7100165530        0.9579233694
  C         0.6362152054        2.1465396953        0.9578342817
  C        27.5341993965        0.7104606646       -3.1505388306
  C        29.5996060550        2.8604020253       -0.0949560091
  C        26.6739627523       -0.0031963738       -4.0317100786
  C        16.1258523508        4.2952099788       -2.1763770983
  C        28.2874369191       -0.0030522232       -2.1764430513
  C        24.6069924596       -0.0033874406       -5.3546283257
  C        25.6971468724        0.7106590837       -4.7812341130
  C        23.4297295467        0.7106573213       -5.7176630568
  C        22.2044308783       -0.0037393023       -5.8417793155
  C        20.9790880756        0.7103906555       -5.7197942434
  C        19.8016830489       -0.0039114066       -5.3571567232
  C        17.7394213868       -0.0042097426       -4.0283367651
  C        18.7132533313        0.7099688967       -4.7813666190
  C        16.1262688596       -0.0047970475       -2.1724768602
  C        15.4441639885        0.7076255984       -1.1481271549
  C        16.8813659247        0.7089717995       -3.1453416024
  C        32.5222513216       11.4594983935        3.8439251664
  C        30.9108173347       11.4599336584        1.9869677597
  C        29.5994229034       11.4603928110       -0.0948660270
  C        28.2874323331       11.4604983635       -2.1764405853
  C        26.6739722569       11.4607374136       -4.0317436702
  C        25.6971635053       10.7465966728       -4.7812659997
  C        24.6069462551       11.4608688733       -5.3545284172
  C        23.4296954856       10.7463794953       -5.7175113658
  C        22.2043874597       11.4607799180       -5.8416283486
  C        20.9790555428       10.7461125190       -5.7196262643
  C        19.8016410067       11.4604016684       -5.3570349430
  C        18.7132019966       10.7458200162       -4.7811838334
  C        31.6634091626       10.7458862548        2.9614175308
  C        30.2360304676       10.7465276691        0.9579364211
  C        28.9624712869       10.7468251575       -1.1475784863
  C        27.5342017169       10.7468532263       -3.1505798614
  C        31.6631511671        9.3095427833        2.9616653781
  C        30.9107828993        8.5963561361        1.9869234252
  C        30.2360483440        9.3100093542        0.9579731548
  C        29.5993558313        8.5968562899       -0.0948331497
  C        28.9625447609        9.3103033694       -1.1476229942
  C        28.2874812327        8.5970033764       -2.1765076033
  C        27.5342039683        9.3105076283       -3.1505877209
  C        26.6740127890        8.5968444771       -4.0318054578
  C        25.6971701003        9.3107151132       -4.7812765496
  C        24.6070381083        8.5966921069       -5.3547785747
  C        23.4297603447        9.3107575305       -5.7177447858
  C        22.2045199626        8.5963826594       -5.8424389207
  C        20.9791424415        9.3104938046       -5.7199950668
  C        19.8018187847        8.5961809837       -5.3575555421
  C        18.7133245330        9.3100630191       -4.7815076955
  C        17.7397827521        8.5959212549       -4.0285819526
  C        17.7400034314        7.1599572917       -4.0294235904
  C        18.7139298042        6.4458603492       -4.7820884570
  C        19.8021228819        7.1605189101       -5.3579391032
  C        20.9794093852        6.4461323375       -5.7208114538
  C        22.2046736540        7.1608580890       -5.8428361168
  C        23.4299622722        6.4464178833       -5.7183094742
  C        24.6070938855        7.1609114037       -5.3549120819
  C        25.6970986604        6.4466193132       -4.7812351278
  C        26.6739449967        7.1607604308       -4.0317329925
  C        27.5342583214        6.4468588457       -3.1506439523
  C        28.2874288795        7.1605341120       -2.1764752508
  C        28.9627335930        6.4468647144       -1.1477685824
  C        29.5993813486        7.1604193093       -0.0948736869
  C        30.2361080181        6.4465239406        0.9578456540
  C        30.9107548760        7.1599158078        1.9869666459
  C        30.2363224293        5.0100118297        0.9578120430
  C        29.5995556673        4.2968489827       -0.0949814186
  C        28.9626426534        5.0103133208       -1.1476975869
  C        28.2876347044        4.2969755340       -2.1766083010
  C        27.5342108646        5.0104777810       -3.1505873928
  C        26.6738720482        4.2968144173       -4.0316665665
  C        25.6971563479        5.0107010752       -4.7813225254
  C        24.6070617193        4.2966573104       -5.3548731759
  C        23.4300047943        5.0107210400       -5.7186227166
  C        22.2047608349        4.2962622341       -5.8431499032
  C        20.9794472357        5.0104566250       -5.7209179692
  C        19.8022056158        4.2960887153       -5.3581521092
  C        18.7139979247        5.0100944579       -4.7822032849
  C        17.7401301505        4.2958023720       -4.0298170978
  C        16.8818573876        5.0093733544       -3.1475162340
  C        16.8819322873        6.4456675469       -3.1469841769
  C        14.7980088599       -0.0059192517       -0.1003005051
 Na        13.7366312768        5.3990261310        5.1099740079
