     225
 i =      171, E =     -1316.3388751915
  C         8.6238001539       14.9321153991        3.6278048935
  C         8.6323396557       14.9464136919        0.0273631654
  C         9.8528231965       15.6509851398        3.6354102138
  C         9.8612812428       15.6659072627        0.0238115684
  C        11.0790909906       14.9327087398        3.7031048255
  C        11.0879901016       14.9474502177       -0.0385197774
  C        12.3085804360       15.6514843448        3.6800495076
  C        12.3174661871       15.6666400524       -0.0115937128
  C        13.5354818526       14.9323330813        3.6932456588
  C        13.5440327946       14.9469659358       -0.0407177244
  C        14.7639164601       15.6503646243        3.6228498477
  C        14.7731915188       15.6652143512        0.0206399297
  C        15.9898108668       14.9307139016        3.5917139392
  C        15.9994241151       14.9451488615        0.0178844455
  C        17.2187370273       15.6496307887        3.5415071655
  C        17.2285075378       15.6651105598        0.0465456302
  C        18.4451071221       14.9300743803        3.5212845980
  C        18.4550721091       14.9458594977        0.0441067500
  C        19.6746899379       15.6496975161        3.5140419265
  C        19.6842930198       15.6657933116        0.0471780568
  C        20.9019690633       14.9307380038        3.5115240523
  C        20.9112084075       14.9464890575        0.0460370664
  C        22.1314745795       15.6502913528        3.5127946708
  C        22.1403064218       15.6663207451        0.0453595644
  C        23.3590388011       14.9315841904        3.5178441758
  C        23.3674763182       14.9469022676        0.0486754274
  C        24.5880472784       15.6518961308        3.5267227098
  C        24.5964723174       15.6665109643        0.0519881875
  C        25.8156583353       14.9350588042        3.5621320763
  C        25.8238489764       14.9468171533        0.0537562552
  C        27.0454036716       15.6520275683        3.5780644532
  C        27.0528750983       15.6660865200        0.0538102550
  C        25.8058851238       13.5080840747        3.5815936361
  C        25.8141683770       13.5209798105        0.0473808562
  C        23.3496339663       13.5061406881        3.5209998863
  C        23.3577581602       13.5211944304        0.0503350335
  C        20.8925223511       13.5051390227        3.5102908594
  C        20.9014707227       13.5206909163        0.0460655984
  C        18.4352525275       13.5040453846        3.5258455367
  C        18.4450936527       13.5198583263        0.0295507953
  C        15.9802305417       13.5048212827        3.6206719949
  C        15.9897143302       13.5200618249       -0.0434194071
  C        14.7536595509       12.7870346504        3.7306392839
  C        14.7619636761       12.8036775067       -0.1542983890
  C        13.5271102119       13.5078950390        3.7762414887
  C        13.5347526758       13.5241111926       -0.1551684250
  C        12.2973777998       12.7931766434        3.8728034221
  C        12.3042327867       12.8105424108       -0.2586367133
  C        11.0685629786       13.5092110271        3.8008761879
  C        11.0766689768       13.5247540245       -0.1525402098
  C         9.8384846091       12.7893951451        3.7966515961
  C         9.8468423460       12.8047500844       -0.1468112072
  C         8.6130380964       13.5071713408        3.6880173791
  C         8.6218149394       13.5212127034       -0.0273451773
  C         7.3842182601       12.7879403026        3.6482372163
  C         7.3929782464       12.8010940797        0.0058478947
  C        24.5775736424       12.7877297303        3.5463167196
  C        24.5850607724       12.8017893312        0.0519839173
  C        22.1203220401       12.7864268471        3.5126466342
  C        22.1287057939       12.8015901854        0.0479673833
  C        19.6628916887       12.7854801765        3.5129289534
  C        19.6722198646       12.8008950781        0.0392318705
  C        17.2059251118       12.7842655889        3.5697821602
  C        17.2162988735       12.8001274037       -0.0205846794
  C        24.5691587397       11.3624170181        3.5529134050
  C        24.5764790400       11.3763519322        0.0521485486
  C        23.3395362460       10.6425507037        3.5275989356
  C        23.3472787266       10.6569687038        0.0534069913
  C        22.1114963698       11.3610117673        3.5129386611
  C        22.1198538240       11.3760860360        0.0493478014
  C        20.8817597894       10.6414935816        3.5088338613
  C        20.8907863364       10.6564292576        0.0446698867
  C        19.6536865495       11.3600842679        3.5111412116
  C        19.6633306804       11.3752624065        0.0337872006
  C        18.4236849889       10.6405411589        3.5242526075
  C        18.4349853622       10.6550073186        0.0003615845
  C        17.1959309791       11.3583416725        3.5757509996
  C        17.2079821937       11.3746895314       -0.0496011661
  C        15.9662925567       10.6366907938        3.6565594574
  C        15.9805052082       10.6569784832       -0.1528550690
  C        14.7477646783       11.3611592139        3.7805624604
  C        14.7572138752       11.3798047548       -0.2523622605
  C        13.5231371975       10.6426910216        3.9255620232
  C        13.5312523853       10.6632536167       -0.4153047021
  C        12.2895718723       11.3675417785        3.9790747320
  C        12.2948340360       11.3893427968       -0.4250242202
  C        11.0524976190       10.6440496103        3.9868546861
  C        11.0556184388       10.6641049102       -0.4221439202
  C         9.8253550524       11.3645657984        3.8761256375
  C         9.8326803916       11.3811729884       -0.2497581146
  C         8.5992794762       10.6427488381        3.7885940613
  C         8.6086309044       10.6579727895       -0.1409469127
  C         7.3749702333       11.3623120963        3.6804577944
  C         7.3844317566       11.3761858784       -0.0236090826
  C         6.1472537053       10.6427153211        3.6121531768
  C         6.1560360805       10.6569945402        0.0298349507
  C         6.1368584829        9.2170999599        3.6213081514
  C         6.1465329547        9.2317720121        0.0289334831
  C         7.3626982310        8.4975153954        3.6864082414
  C         7.3728249308        8.5128984258       -0.0289735546
  C         8.5896801001        9.2159602422        3.7836949555
  C         8.5990678638        9.2316661068       -0.1423583560
  C         9.8144780804        8.4926906794        3.8476211804
  C         9.8218032899        8.5097636538       -0.2471506515
  C        11.0437441610        9.2099476932        3.9604766672
  C        11.0468614786        9.2274131441       -0.4133788146
  C        12.2776212953        8.4866499409        3.9135451340
  C        12.2830336808        8.5035037992       -0.4075464025
  C        13.5129366792        9.2092782479        3.8896749782
  C        13.5206822957        9.2276893450       -0.4063082918
  C        14.7342779852        8.4917649108        3.7180876916
  C        14.7443611329        8.5099884743       -0.2453820065
  C        15.9589118470        9.2127796955        3.6293342802
  C        15.9705206391        9.2310236721       -0.1516064073
  C        17.1857747414        8.4955621988        3.5371582478
  C        17.1956087388        8.5116170127       -0.0497802530
  C        18.4148776049        9.2152183899        3.5142920152
  C        18.4254699978        9.2284487040       -0.0000108604
  C        19.6430668825        8.4964319483        3.5069723716
  C        19.6523465871        8.5109635345        0.0347861867
  C        20.8723361377        9.2161158675        3.5111741792
  C        20.8812739895        9.2310657728        0.0455912586
  C        22.1000647935        8.4974397005        3.5268262403
  C        22.1084956164        8.5121609421        0.0517888290
  C        23.3292891320        9.2170435108        3.5389479024
  C        23.3377740282        9.2315662836        0.0546469135
  C        22.0916572875        7.0721248286        3.5460995332
  C        22.0989932904        7.0867062721        0.0536454959
  C        20.8628908623        6.3521271421        3.5369605596
  C        20.8699390158        6.3670737227        0.0508372937
  C        19.6349969228        7.0709673107        3.5131782535
  C        19.6425480342        7.0860368432        0.0399324508
  C        18.4058704791        6.3515656557        3.5078236198
  C        18.4130880733        6.3675503847        0.0265838143
  C        17.1777436409        7.0705245805        3.5188938706
  C        17.1858360960        7.0867314038       -0.0239356119
  C        15.9489478525        6.3511680750        3.5414023842
  C        15.9569601592        6.3681524871       -0.0510530739
  C        14.7226655525        7.0685593178        3.6377267586
  C        14.7310852304        7.0859188966       -0.1538527872
  C        13.4944301791        6.3486833210        3.6719782423
  C        13.5018181812        6.3660151384       -0.1570368065
  C        12.2681275246        7.0641113043        3.7791453813
  C        12.2741588364        7.0813329538       -0.2521209637
  C        11.0374815196        6.3487633951        3.7239034321
  C        11.0447110668        6.3656701931       -0.1579602904
  C         9.8103651625        7.0690407038        3.7549988300
  C         9.8173447122        7.0856143134       -0.1511177772
  C         8.5817612817        6.3515417344        3.6765276922
  C         8.5904431977        6.3682463137       -0.0365982370
  C         7.3551509323        7.0719428981        3.6601232191
  C         7.3636182733        7.0873081742       -0.0012246797
  C         6.1263167960        6.3527439395        3.6157424129
  C         6.1348653708        6.3679518632        0.0472222484
  C         4.8994818773        7.0722199201        3.5932681540
  C         4.9076150653        7.0870616311        0.0557681882
  C         4.9079804587        8.4976053082        3.5807632439
  C         4.9170858138        8.5125413979        0.0531323285
  C         3.6706483171        6.3528120631        3.5795795898
  C         3.6783139973        6.3675599027        0.0579357276
  C         3.6608782031        4.9270600983        3.5959893253
  C         3.6692222034        4.9418805701        0.0587159749
  C         4.8874306852        4.2075410198        3.6037284969
  C         4.8962839782        4.2226081632        0.0618323080
  C         6.1166229783        4.9268369470        3.6060705419
  C         6.1257565739        4.9420912385        0.0576681044
  C         7.3429430934        4.2071495849        3.5983436404
  C         7.3524693236        4.2229958780        0.0527005001
  C         8.5721898527        4.9263044844        3.6177106865
  C         8.5816777150        4.9429381857        0.0160699465
  C         9.7982671686        4.2065690857        3.5944350466
  C         9.8070127890        4.2230155680        0.0011206993
  C        11.0275682066        4.9251105887        3.6261695044
  C        11.0362501170        4.9419060146       -0.0552237648
  C        12.2539620857        4.2057798169        3.5845655565
  C        12.2630957974        4.2228373333       -0.0295281951
  C        13.4834323973        4.9246730649        3.5901001937
  C        13.4921495144        4.9422984720       -0.0548486537
  C        14.7102530996        4.2066451880        3.5314807905
  C        14.7188707250        4.2234407638       -0.0005902826
  C        15.9394342527        4.9257859205        3.5182327866
  C        15.9482315961        4.9434120366       -0.0004024879
  C        17.1673502183        4.2069174626        3.5095642874
  C        17.1749565558        4.2233882392        0.0364403772
  C        18.3966781911        4.9261244258        3.5142754747
  C        18.4040522849        4.9421388336        0.0414648535
  C        19.6242777566        4.2072522858        3.5385670775
  C        19.6313528296        4.2225974669        0.0532433913
  C        20.8539245442        4.9263929398        3.5611754289
  C        20.8606382844        4.9416946869        0.0538029239
  C        19.6148474842        2.7817858104        3.5570539877
  C        19.6218391096        2.7968756401        0.0567561438
  C        18.3861496840        2.0628218031        3.5460228210
  C        18.3928594309        2.0776781103        0.0567031329
  C        17.1583434640        2.7815609228        3.5195793044
  C        17.1654607493        2.7975078900        0.0495517825
  C        15.9289156097        2.0627065174        3.5160366305
  C        15.9366412889        2.0780994542        0.0472477018
  C        14.7012029054        2.7812973440        3.5157024753
  C        14.7093685169        2.7977384758        0.0335006115
  C        13.4721687263        2.0616240052        3.5184496360
  C        13.4805527372        2.0779087524        0.0365928728
  C        12.2448502784        2.7806983885        3.5355985302
  C        12.2535486889        2.7973867248        0.0229823158
  C        11.0156152440        2.0613362678        3.5271278766
  C        11.0246117059        2.0775601591        0.0386820179
  C         9.7890315068        2.7810542210        3.5476483400
  C         9.7979577252        2.7969861152        0.0378113126
  C         8.5600541021        2.0616071641        3.5492172347
  C         8.5690163286        2.0770225274        0.0532681494
  C         6.1047176987        2.0619906914        3.6010695037
  C         6.1134230563        2.0769272855        0.0535939137
  C         7.3337023656        2.7812145986        3.5794636880
  C         7.3426140883        2.7967516100        0.0586179914
  C         4.8782804586        2.7816958154        3.6116285706
  C         4.8867532946        2.7966423603        0.0556503038
  C         3.6493013457        2.0623301025        3.6282876523
  C         3.6574849801        2.0773091192        0.0414489306
  C         2.4224802952        2.7816625218        3.6064531806
  C         2.4303080963        2.7967283706        0.0527278168
  C         2.4320168242        4.2072575954        3.5906958991
  C         2.4398564674        4.2224375690        0.0571176004
  C         1.1936865131        2.0622468825        3.5967579010
  C         1.2012826441        2.0773226445        0.0514303903
 Na        12.2390655723       10.0571911276        1.7350900748
