     193
 i =       93, E =     -1140.4797712077
  C        -0.0019392326        0.0011943709       -0.0938977262
  C        16.1160625977        2.8646556978       -2.1725558358
  C        15.4387705404        2.1512885772       -1.1448811586
  C        16.8711867515        2.1510626904       -3.1452809965
  C        17.7312151752        2.8648852214       -4.0268832653
  C        18.7080162870        2.1508997998       -4.7765220054
  C        19.7985465133        2.8650905646       -5.3492559864
  C        20.9766409816        2.1508235569       -5.7104264626
  C        23.4279356296        2.1507170132       -5.7115280337
  C        22.2022064958        2.8651303973       -5.8329248304
  C        26.6772024157        2.8648842020       -4.0343017533
  C        24.6065216100        2.8649816048       -5.3521704133
  C        25.6983705684        2.1508584336       -4.7815067859
  C        28.9643061166        2.1512586250       -1.1489186321
  C        27.5385039995        2.1511369953       -3.1539672496
  C        28.2907605986        2.8647289533       -2.1790273936
  C        28.9643384499        0.7146804336       -1.1487322558
  C        17.7313135536       11.4648502076       -4.0267742013
  C        16.1165121787       11.4646714710       -2.1720192931
  C        14.7987000695       11.4646392002       -0.0937849118
  C        13.4805614422       11.4646797528        1.9841675642
  C        11.8659495629       11.4649523070        3.8387167424
  C        10.8903971057       10.7514270158        4.5900160632
  C         9.8004253941       11.4652584983        5.1641105781
  C         8.6221352219       10.7523922631        5.5272189301
  C         7.3953919667       11.4655009885        5.6503090147
  C         6.1679482088       10.7521770390        5.5286667732
  C         4.9889765765       11.4652454223        5.1656888365
  C         3.8962672447       10.7523179798        4.5946152582
  C        16.8713009705       10.7511230419       -3.1450502220
  C        15.4388401490       10.7511526587       -1.1447248516
  C        14.1587492312       10.7512077018        0.9571617176
  C        12.7257544310       10.7512417242        2.9570244398
  C        16.8710038005        9.3147661488       -3.1454143939
  C        16.1158599510        8.6012385544       -2.1726711781
  C        15.4386605992        9.3145925190       -1.1449702802
  C        14.7989219163        8.6011082789       -0.0938507001
  C        14.1591530762        9.3145640371        0.9572739713
  C        13.4818157926        8.6011284825        1.9847943536
  C        12.7264759603        9.3148355226        2.9575128086
  C        11.8674055531        8.6012913494        3.8399956616
  C        10.8912826423        9.3158033891        4.5907708621
  C         9.8013445846        8.6026694589        5.1652693949
  C         8.6234748451        9.3172497429        5.5295699374
  C         7.3959907208        8.6054253077        5.6553139745
  C         6.1673727544        9.3173961854        5.5295572163
  C         4.9875449117        8.6041941135        5.1655381422
  C         3.8946521007        9.3167755491        4.5950543902
  C         2.9148491317        8.6020379717        3.8487126404
  C         2.9127034411        7.1659017496        3.8488320073
  C         3.8929505839        6.4515407161        4.5931545593
  C         4.9834851422        7.1688707588        5.1632963759
  C         6.1658132787        6.4543850570        5.5203249379
  C         7.3985218434        7.1690029901        5.6535000657
  C         8.6266570386        6.4516463847        5.5263101947
  C         9.8043582705        7.1667082865        5.1664653445
  C        10.8938026374        6.4509334672        4.5921714578
  C        11.8690670512        7.1651158841        3.8408272202
  C        12.7285534223        6.4511136429        2.9587474773
  C        13.4825635629        7.1647559555        1.9850636258
  C        14.1599908866        6.4512358706        0.9575831442
  C        14.7990118076        7.1646983979       -0.0939541696
  C        15.4383539017        6.4512479356       -1.1453915921
  C        16.1153782479        7.1647115293       -2.1731125980
  C        15.4383883662        5.0146922917       -1.1454298832
  C        14.7991744121        4.3012290588       -0.0938951348
  C        14.1598963511        5.0146962861        0.9574416785
  C        13.4823734309        4.3012417680        1.9848882282
  C        12.7284677835        5.0148603096        2.9586187345
  C        11.8690283980        4.3008298002        3.8406261956
  C        10.8938687762        5.0150059227        4.5921450653
  C         9.8043952788        4.2992851043        5.1662494770
  C         8.6268065920        5.0143699569        5.5262556273
  C         7.3986344162        4.2967932703        5.6521936344
  C         6.1658374737        5.0116633424        5.5186517654
  C         4.9835934813        4.2969301939        5.1621101519
  C         3.8929137347        5.0144119469        4.5927269258
  C         2.9125109912        4.2999928220        3.8487149734
  C         2.0524084174        5.0148429773        2.9678968235
  C         2.0523708246        6.4510952678        2.9680659782
  C         1.3026872529        4.3010946596        1.9914033223
  C         1.3034589587        2.8646168599        1.9915393579
  C         2.0543871289        2.1505676339        2.9674781993
  C         2.9148888475        2.8638057669        3.8483986056
  C         3.8945585790        2.1488869502        4.5947897380
  C         4.9876652665        2.8615104717        5.1647039330
  C         6.1673698806        2.1482001307        5.5290740302
  C         7.3961019003        2.8601686071        5.6544797839
  C         8.6236672433        2.1483822559        5.5295241661
  C         9.8013792154        2.8632475483        5.1650996149
  C        10.8913277052        2.1500149949        4.5907232456
  C        11.8671097413        2.8646434877        3.8396323086
  C        12.7261770581        2.1511334693        2.9571859616
  C        13.4816281717        2.8648417654        1.9845528515
  C        14.1589375172        2.1512758799        0.9571357980
  C        14.7989617093        2.8647927015       -0.0938345560
  C        14.1585205657        0.7146187760        0.9569203975
  C        13.4804889052        0.0012638930        1.9841174888
  C        12.7254833535        0.7146836597        2.9568255337
  C        11.8658820496        0.0008947174        3.8386427198
  C        10.8903512439        0.7143327155        4.5899821708
  C         9.8004105658        0.0004284727        5.1639584312
  C         8.6222055003        0.7132665099        5.5272817502
  C         7.3954454964        0.0001731547        5.6503140502
  C         6.1679685029        0.7134390952        5.5284565297
  C         4.9889069560        0.0004397982        5.1657577318
  C         2.9166495644        0.0005865030        3.8473719829
  C         3.8962792568        0.7133153888        4.5944481471
  C         2.0554214013        0.7143318021        2.9670671229
  C         1.3041681248        0.0011418584        1.9913907804
  C         0.6317321292        0.7146732715        0.9607386654
  C         0.6316508186        2.1511974981        0.9606227390
  C        27.5388416098        0.7147122213       -3.1539723203
  C        29.5982189778        2.8647889623       -0.0943394760
  C        26.6773208204        0.0009537170       -4.0339858879
  C        16.1154886343        4.3011999318       -2.1730631177
  C        28.2911479813        0.0011804050       -2.1789236745
  C        24.6063051592        0.0008655287       -5.3514067067
  C        25.6983777923        0.7148887487       -4.7812172741
  C        23.4278696630        0.7150392423       -5.7113452215
  C        22.2021195222        0.0007287794       -5.8327417099
  C        20.9766056769        0.7150838124       -5.7103072573
  C        19.7984539330        0.0008186205       -5.3494380390
  C        17.7314242885        0.0009380544       -4.0267024963
  C        18.7079948934        0.7149573690       -4.7765397429
  C        16.1166530290        0.0012115000       -2.1719348469
  C        15.4387335741        0.7147132942       -1.1448169515
  C        16.8714588388        0.7147039698       -3.1449992049
  C        32.5167731792       11.4651418990        3.8473779388
  C        30.9041329124       11.4647122143        1.9914734120
  C        29.5983007700       11.4646298319       -0.0939852145
  C        28.2912252953       11.4646256800       -2.1789881676
  C        26.6772806555       11.4648666104       -4.0339631391
  C        25.6984729045       10.7509558642       -4.7814117160
  C        24.6063676731       11.4650408012       -5.3515261169
  C        23.4279216220       10.7508241732       -5.7113573375
  C        22.2021507560       11.4651491680       -5.8327185652
  C        20.9766487593       10.7508091310       -5.7101762951
  C        19.7985040227       11.4650741526       -5.3492686933
  C        18.7080339634       10.7508871413       -4.7764519232
  C        31.6554528809       10.7514703703        2.9671235278
  C        30.2316353070       10.7511542570        0.9608849743
  C        28.9642270313       10.7511606354       -1.1486205257
  C        27.5388253449       10.7510895304       -3.1539715143
  C        31.6544425709        9.3152900061        2.9676025687
  C        30.9035324600        8.6013038142        1.9916292027
  C        30.2316276653        9.3146509116        0.9606963049
  C        29.5984580570        8.6011101130       -0.0944371710
  C        28.9642214172        9.3145989253       -1.1488519268
  C        28.2907342669        8.6011542064       -2.1789733962
  C        27.5385463251        9.3146805660       -3.1539982296
  C        26.6772089909        8.6009788180       -4.0343097447
  C        25.6985518142        9.3149919435       -4.7817480251
  C        24.6066399869        8.6009082553       -5.3523117458
  C        23.4280513151        9.3151601686       -5.7116727257
  C        22.2022729306        8.6008260395       -5.8328525726
  C        20.9767110900        9.3150952484       -5.7102904670
  C        19.7986213165        8.6008504751       -5.3491408045
  C        18.7080174104        9.3149672274       -4.7764881486
  C        17.7312458035        8.6010009934       -4.0268221822
  C        17.7310629980        7.1648929505       -4.0270009865
  C        18.7082734490        6.4508979631       -4.7760713347
  C        19.7986777292        7.1651015749       -5.3489639408
  C        20.9767513570        6.4508751099       -5.7102570491
  C        22.2022453653        7.1652150223       -5.8329884567
  C        23.4281247590        6.4508443966       -5.7124132668
  C        24.6067287412        7.1650341700       -5.3527987705
  C        25.6986119033        6.4509472200       -4.7822030570
  C        26.6772635764        7.1648866983       -4.0345762643
  C        27.5378140425        6.4511372761       -3.1536469787
  C        28.2908306260        7.1647303598       -2.1792238523
  C        28.9644280805        6.4511956336       -1.1493269441
  C        29.5984053629        7.1647128689       -0.0947632136
  C        30.2314971536        6.4511445738        0.9602270104
  C        30.9027816088        7.1648625170        1.9914619517
  C        30.2312611045        5.0148080336        0.9602866746
  C        29.5985136180        4.3012106519       -0.0948464195
  C        28.9643655202        5.0146813224       -1.1493441387
  C        28.2906742157        4.3011725886       -2.1791738565
  C        27.5381565307        5.0147454772       -3.1539962980
  C        26.6769996956        4.3009839137       -4.0342975375
  C        25.6986190587        5.0149499277       -4.7822353170
  C        24.6066850936        4.3008710392       -5.3527073091
  C        23.4281151065        5.0151276811       -5.7122631402
  C        22.2022721563        4.3007633589       -5.8331369126
  C        20.9768029513        5.0151140622       -5.7101789702
  C        19.7987417686        4.3008531155       -5.3489778755
  C        18.7081893750        5.0149774809       -4.7762496511
  C        17.7311370396        4.3010152448       -4.0269732128
  C        16.8703093747        5.0147422568       -3.1460776751
  C        16.8703860868        6.4511634278       -3.1459679287
  C        14.7989862476        0.0011920183       -0.0936710382
 Na         6.4289533492        5.6855585895        8.0156325758
